
  CDK     0427161240

 15 15  0  0  0  0  0  0  0  0999 V2000
    0.0000    0.0000    0.0000 C   0  0  0  0  0  0  0  0  0  0  0  0
    0.0000    0.0000    0.0000 C   0  0  0  0  0  0  0  0  0  0  0  0
    0.0000    0.0000    0.0000 C   0  0  0  0  0  0  0  0  0  0  0  0
    0.0000    0.0000    0.0000 C   0  0  0  0  0  0  0  0  0  0  0  0
    0.0000    0.0000    0.0000 C   0  0  0  0  0  0  0  0  0  0  0  0
    0.0000    0.0000    0.0000 C   0  0  0  0  0  0  0  0  0  0  0  0
    0.0000    0.0000    0.0000 C   0  0  0  0  0  0  0  0  0  0  0  0
    0.0000    0.0000    0.0000 Cl  0  0  0  0  0  0  0  0  0  0  0  0
    0.0000    0.0000    0.0000 Cl  0  0  0  0  0  0  0  0  0  0  0  0
    0.0000    0.0000    0.0000 F   0  0  0  0  0  0  0  0  0  0  0  0
    0.0000    0.0000    0.0000 N   0  0  0  0  0  0  0  0  0  0  0  0
    0.0000    0.0000    0.0000 N   0  0  0  0  0  0  0  0  0  0  0  0
    0.0000    0.0000    0.0000 O   0  0  0  0  0  0  0  0  0  0  0  0
    0.0000    0.0000    0.0000 O   0  0  0  0  0  0  0  0  0  0  0  0
    0.0000    0.0000    0.0000 O   0  0  0  0  0  0  0  0  0  0  0  0
  2  1  1  0  0  0  0 
  5  3  2  0  0  0  0 
  5  4  1  0  0  0  0 
  6  3  1  0  0  0  0 
  7  4  2  0  0  0  0 
  8  3  1  0  0  0  0 
  9  4  1  0  0  0  0 
 10  6  1  0  0  0  0 
 11  5  1  0  0  0  0 
 12  6  2  0  0  0  0 
 12  7  1  0  0  0  0 
 13  2  2  0  0  0  0 
 14  2  1  0  0  0  0 
 15  1  1  0  0  0  0 
 15  7  1  0  0  0  0 
M  END
> <NumberPeaksExplained>
18

> <PeaksExplained>
90.97445_681.0;106.94476_274.0;115.98965_95.0;117.9854_384.0;133.95592_777.0;143.98846_478.0;144.99625_352.0;146.0041_999.0;151.94641_962.0;160.96668_387.0;163.00682_782.0;172.99055_17.0;178.95724_678.0;178.97725_391.0;180.97293_999.0;196.96778_720.0;208.9678_999.0;236.96245_999.0

> <FragmentMolecularFormulas>
90.97445:[C3ClF]+H+;106.94476:[C3Cl2]+H+;115.98965:[C4H4ClNO-H]+;117.9854:[C4H2ClFN]+;133.95592:[C4H2Cl2N]+;143.98846:[C5H2ClFN2]+;144.99625:[C5H2ClFN2]+H+;146.0041:[C5H2ClFN2+H]+H+;151.94641:[C4H2Cl2FN-H]+;160.96668:[C5H2Cl2N2]+H+;163.00682:[C5H2ClFN2O+2H]+H+;172.99055:[C6H4ClFN2O-H]+;178.95724:[C5H2Cl2FN2]+;178.97725:[C5H2Cl2N2O+2H]+H+;180.97293:[C5H2Cl2FN2+H]+H+;196.96778:[C5H2Cl2FN2O+H]+H+;208.9678:[C6H3Cl2FN2O]+H+;236.96245:[C7H3Cl2FN2O2]+H+

> <Score>
1.0

> <XlogP3>
1.8

> <InChI>
InChI=1S/C7H5Cl2FN2O3/c8-3-5(11)4(9)7(12-6(3)10)15-1-2(13)14/h1H2,(H2,11,12)(H,13,14)

> <FragmenterScore_Values>
1530.0;1529.0;1673.0;1563.0;1585.0;698.0;698.0;798.0;1325.0;844.0;898.0;786.0;1044.0;360.0;460.0;460.0;360.0;348.0

> <MaximumTreeDepth>
2

> <MonoisotopicMass>
253.966126

> <CompoundName>
2-[(4-amino-3,5-dichloro-6-fluoro-2-pyridyl)oxy]acetic acid

> <Identifier>
50465

> <SimScore>
0.9743

> <MolecularFormula>
C7H5Cl2FN2O3

> <SMILES>
C(C(=O)O)OC1=NC(=C(C(=C1Cl)N)Cl)F

> <InChIKey2>
UHFFFAOYSA

> <InChIKey1>
MEFQWPUMEMWTJP

> <FragmenterScore>
1197.326780160434

> <NumberPeaksUsed>
22

$$$$

  CDK     0427161240

 15 15  0  0  0  0  0  0  0  0999 V2000
    0.0000    0.0000    0.0000 C   0  0  0  0  0  0  0  0  0  0  0  0
    0.0000    0.0000    0.0000 C   0  0  0  0  0  0  0  0  0  0  0  0
    0.0000    0.0000    0.0000 C   0  0  0  0  0  0  0  0  0  0  0  0
    0.0000    0.0000    0.0000 C   0  0  0  0  0  0  0  0  0  0  0  0
    0.0000    0.0000    0.0000 C   0  0  0  0  0  0  0  0  0  0  0  0
    0.0000    0.0000    0.0000 C   0  0  0  0  0  0  0  0  0  0  0  0
    0.0000    0.0000    0.0000 C   0  0  0  0  0  0  0  0  0  0  0  0
    0.0000    0.0000    0.0000 Cl  0  0  0  0  0  0  0  0  0  0  0  0
    0.0000    0.0000    0.0000 Cl  0  0  0  0  0  0  0  0  0  0  0  0
    0.0000    0.0000    0.0000 F   0  0  0  0  0  0  0  0  0  0  0  0
    0.0000    0.0000    0.0000 N   0  0  0  0  0  0  0  0  0  0  0  0
    0.0000    0.0000    0.0000 N   0  0  0  0  0  0  0  0  0  0  0  0
    0.0000    0.0000    0.0000 O   0  0  0  0  0  0  0  0  0  0  0  0
    0.0000    0.0000    0.0000 O   0  0  0  0  0  0  0  0  0  0  0  0
    0.0000    0.0000    0.0000 O   0  0  0  0  0  0  0  0  0  0  0  0
  2  1  1  0  0  0  0 
  5  3  2  0  0  0  0 
  5  4  1  0  0  0  0 
  6  3  1  0  0  0  0 
  7  4  2  0  0  0  0 
  8  3  1  0  0  0  0 
  9  4  1  0  0  0  0 
 10  6  1  0  0  0  0 
 11  5  1  0  0  0  0 
 12  6  2  0  0  0  0 
 12  7  1  0  0  0  0 
 13  1  1  0  0  0  0 
 14  2  2  0  0  0  0 
 15  2  1  0  0  0  0 
 15  7  1  0  0  0  0 
M  END
> <NumberPeaksExplained>
16

> <PeaksExplained>
90.97445_681.0;106.94476_274.0;117.9854_384.0;133.95592_777.0;143.98846_478.0;144.99625_352.0;146.0041_999.0;151.94641_962.0;160.96668_387.0;163.00682_782.0;178.95724_678.0;178.97725_391.0;180.97293_999.0;196.96778_720.0;208.9678_999.0;236.96245_999.0

> <FragmentMolecularFormulas>
90.97445:[C3ClF]+H+;106.94476:[C3Cl2]+H+;117.9854:[C4H2ClFN]+;133.95592:[C4H2Cl2N]+;143.98846:[C5H2ClFN2]+;144.99625:[C5H2ClFN2]+H+;146.0041:[C5H2ClFN2+H]+H+;151.94641:[C4H2Cl2FN-H]+;160.96668:[C5H2Cl2N2]+H+;163.00682:[C5H2ClFN2O+2H]+H+;178.95724:[C5H2Cl2FN2]+;178.97725:[C5H2Cl2N2O+2H]+H+;180.97293:[C5H2Cl2FN2+H]+H+;196.96778:[C5H2Cl2FN2O+H]+H+;208.9678:[C6H2Cl2FN2O+H]+H+;236.96245:[C7H3Cl2FN2O2]+H+

> <Score>
0.920622985049778

> <XlogP3>
1.3

> <InChI>
InChI=1S/C7H5Cl2FN2O3/c8-3-5(11)4(9)7(12-6(3)10)15-2(14)1-13/h13H,1H2,(H2,11,12)

> <FragmenterScore_Values>
1530.0;1529.0;1563.0;1585.0;698.0;698.0;798.0;1325.0;844.0;898.0;1044.0;360.0;460.0;460.0;360.0;1191.0

> <MaximumTreeDepth>
2

> <MonoisotopicMass>
253.966126

> <CompoundName>
(4-amino-3,5-dichloro-6-fluoro-2-pyridyl) 2-hydroxyacetate

> <Identifier>
57010914

> <SimScore>
0.9738

> <MolecularFormula>
C7H5Cl2FN2O3

> <SMILES>
C(C(=O)OC1=NC(=C(C(=C1Cl)N)Cl)F)O

> <InChIKey2>
UHFFFAOYSA

> <InChIKey1>
YIKYXZCEJLSXGO

> <FragmenterScore>
1102.2865544313381

> <NumberPeaksUsed>
22

$$$$

  CDK     0427161240

 15 15  0  0  0  0  0  0  0  0999 V2000
    0.0000    0.0000    0.0000 C   0  0  0  0  0  0  0  0  0  0  0  0
    0.0000    0.0000    0.0000 C   0  0  0  0  0  0  0  0  0  0  0  0
    0.0000    0.0000    0.0000 C   0  0  0  0  0  0  0  0  0  0  0  0
    0.0000    0.0000    0.0000 C   0  0  0  0  0  0  0  0  0  0  0  0
    0.0000    0.0000    0.0000 C   0  0  0  0  0  0  0  0  0  0  0  0
    0.0000    0.0000    0.0000 C   0  0  0  0  0  0  0  0  0  0  0  0
    0.0000    0.0000    0.0000 C   0  0  0  0  0  0  0  0  0  0  0  0
    0.0000    0.0000    0.0000 Cl  0  0  0  0  0  0  0  0  0  0  0  0
    0.0000    0.0000    0.0000 Cl  0  0  0  0  0  0  0  0  0  0  0  0
    0.0000    0.0000    0.0000 F   0  0  0  0  0  0  0  0  0  0  0  0
    0.0000    0.0000    0.0000 N   0  0  0  0  0  0  0  0  0  0  0  0
    0.0000    0.0000    0.0000 N   0  0  0  0  0  0  0  0  0  0  0  0
    0.0000    0.0000    0.0000 O   0  0  0  0  0  0  0  0  0  0  0  0
    0.0000    0.0000    0.0000 O   0  0  0  0  0  0  0  0  0  0  0  0
    0.0000    0.0000    0.0000 O   0  0  0  0  0  0  0  0  0  0  0  0
  3  1  2  0  0  0  0 
  3  2  1  0  0  0  0 
  4  1  1  0  0  0  0 
  5  4  1  0  0  0  0 
  6  2  2  0  0  0  0 
  7  5  1  0  0  0  0 
  8  1  1  0  0  0  0 
  9  2  1  0  0  0  0 
 10  6  1  0  0  0  0 
 11  3  1  0  0  0  0 
 12  4  2  0  0  0  0 
 12  6  1  0  0  0  0 
 13  5  1  0  0  0  0 
 14  7  2  0  0  0  0 
 15  7  1  0  0  0  0 
M  END
> <NumberPeaksExplained>
17

> <PeaksExplained>
90.97445_681.0;106.94476_274.0;115.98965_95.0;117.9854_384.0;133.95592_777.0;143.98846_478.0;144.99625_352.0;146.0041_999.0;151.94641_962.0;160.96668_387.0;163.00682_782.0;172.99055_17.0;178.95724_678.0;178.97725_391.0;180.97293_999.0;208.9678_999.0;236.96245_999.0

> <FragmentMolecularFormulas>
90.97445:[C3ClF]+H+;106.94476:[C3Cl2]+H+;115.98965:[C4H3ClNO]+;117.9854:[C4H2ClFN]+;133.95592:[C4H2Cl2N]+;143.98846:[C5H2ClFN2]+;144.99625:[C5H2ClFN2]+H+;146.0041:[C5H2ClFN2+H]+H+;151.94641:[C4H2Cl2FN-H]+;160.96668:[C5H2Cl2N2]+H+;163.00682:[C5H3ClFN2O+H]+H+;172.99055:[C6H4ClFN2O-H]+;178.95724:[C5H2Cl2FN2]+;178.97725:[C5H3ClFNO3]+;180.97293:[C5H2Cl2FN2+H]+H+;208.9678:[C6H3Cl2FN2O]+H+;236.96245:[C7H3Cl2FN2O2]+H+

> <Score>
0.8894322279285645

> <XlogP3>
0.8

> <InChI>
InChI=1S/C7H5Cl2FN2O3/c8-1-3(11)2(9)6(10)12-4(1)5(13)7(14)15/h5,13H,(H2,11,12)(H,14,15)

> <FragmenterScore_Values>
1530.0;1529.0;1573.0;1563.0;1573.0;686.0;686.0;786.0;1325.0;832.0;1672.0;786.0;1224.0;348.0;448.0;360.0;348.0

> <MaximumTreeDepth>
2

> <MonoisotopicMass>
253.966126

> <CompoundName>
2-(4-amino-3,5-dichloro-6-fluoro-2-pyridyl)-2-hydroxy-acetic acid

> <Identifier>
56974741

> <SimScore>
0.944

> <MolecularFormula>
C7H5Cl2FN2O3

> <SMILES>
C1(=C(C(=NC(=C1Cl)F)C(C(=O)O)O)Cl)N

> <InChIKey2>
UHFFFAOYSA

> <InChIKey1>
DAJPMSPFQSGXDV

> <FragmenterScore>
1064.9410256366293

> <NumberPeaksUsed>
22

$$$$

  CDK     0427161240

 15 15  0  0  0  0  0  0  0  0999 V2000
    0.0000    0.0000    0.0000 C   0  0  0  0  0  0  0  0  0  0  0  0
    0.0000    0.0000    0.0000 C   0  0  0  0  0  0  0  0  0  0  0  0
    0.0000    0.0000    0.0000 C   0  0  0  0  0  0  0  0  0  0  0  0
    0.0000    0.0000    0.0000 C   0  0  0  0  0  0  0  0  0  0  0  0
    0.0000    0.0000    0.0000 C   0  0  0  0  0  0  0  0  0  0  0  0
    0.0000    0.0000    0.0000 C   0  0  0  0  0  0  0  0  0  0  0  0
    0.0000    0.0000    0.0000 C   0  0  0  0  0  0  0  0  0  0  0  0
    0.0000    0.0000    0.0000 Cl  0  0  0  0  0  0  0  0  0  0  0  0
    0.0000    0.0000    0.0000 Cl  0  0  0  0  0  0  0  0  0  0  0  0
    0.0000    0.0000    0.0000 F   0  0  0  0  0  0  0  0  0  0  0  0
    0.0000    0.0000    0.0000 N   0  0  0  0  0  0  0  0  0  0  0  0
    0.0000    0.0000    0.0000 N   0  0  0  0  0  0  0  0  0  0  0  0
    0.0000    0.0000    0.0000 O   0  0  0  0  0  0  0  0  0  0  0  0
    0.0000    0.0000    0.0000 O   0  0  0  0  0  0  0  0  0  0  0  0
    0.0000    0.0000    0.0000 O   0  0  0  0  0  0  0  0  0  0  0  0
  2  1  1  0  0  0  0 
  5  3  2  0  0  0  0 
  5  4  1  0  0  0  0 
  6  3  1  0  0  0  0 
  7  4  2  0  0  0  0 
  8  3  1  0  0  0  0 
  9  4  1  0  0  0  0 
 10  6  1  0  0  0  0 
 11  5  1  0  0  0  0 
 12  6  2  0  0  0  0 
 12  7  1  0  0  0  0 
 13  2  2  0  0  0  0 
 14  2  1  0  0  0  0 
 15  7  1  0  0  0  0 
 15 14  1  0  0  0  0 
M  END
> <NumberPeaksExplained>
15

> <PeaksExplained>
90.97445_681.0;106.94476_274.0;117.9854_384.0;133.95592_777.0;143.98846_478.0;144.99625_352.0;146.0041_999.0;151.94641_962.0;160.96668_387.0;163.00682_782.0;178.95724_678.0;178.97725_391.0;180.97293_999.0;196.96778_720.0;236.96245_999.0

> <FragmentMolecularFormulas>
90.97445:[C3ClF]+H+;106.94476:[C3Cl2]+H+;117.9854:[C4H2ClFN]+;133.95592:[C4H2Cl2N]+;143.98846:[C5H2ClFN2]+;144.99625:[C5H2ClFN2]+H+;146.0041:[C5H2ClFN2+H]+H+;151.94641:[C4H2Cl2FN-H]+;160.96668:[C5H2Cl2N2]+H+;163.00682:[C5H2ClFN2O+2H]+H+;178.95724:[C5H2Cl2FN2]+;178.97725:[C5H2Cl2N2O+2H]+H+;180.97293:[C5H2Cl2FN2+H]+H+;196.96778:[C5H2Cl2FN2O+H]+H+;236.96245:[C7H5Cl2FN2O2-H]+

> <Score>
0.8188448886266555

> <XlogP3>
2.2

> <InChI>
InChI=1S/C7H5Cl2FN2O3/c1-2(13)14-15-7-4(9)5(11)3(8)6(10)12-7/h1H3,(H2,11,12)

> <FragmenterScore_Values>
1530.0;1529.0;1563.0;1585.0;698.0;698.0;798.0;1325.0;844.0;684.0;830.0;360.0;246.0;460.0;843.0

> <MaximumTreeDepth>
2

> <MonoisotopicMass>
253.966126

> <CompoundName>
(4-amino-3,5-dichloro-6-fluoro-2-pyridyl) peroxyacetate

> <Identifier>
88419651

> <SimScore>
0.9145

> <MolecularFormula>
C7H5Cl2FN2O3

> <SMILES>
CC(=O)OOC1=NC(=C(C(=C1Cl)N)Cl)F

> <InChIKey2>
UHFFFAOYSA

> <InChIKey1>
NBZJAGQPOYIWEZ

> <FragmenterScore>
980.4249139501827

> <NumberPeaksUsed>
22

$$$$

  CDK     0427161240

 15 14  0  0  0  0  0  0  0  0999 V2000
    0.0000    0.0000    0.0000 C   0  0  0  0  0  0  0  0  0  0  0  0
    0.0000    0.0000    0.0000 C   0  0  0  0  0  0  0  0  0  0  0  0
    0.0000    0.0000    0.0000 C   0  0  0  0  0  0  0  0  0  0  0  0
    0.0000    0.0000    0.0000 C   0  0  0  0  0  0  0  0  0  0  0  0
    0.0000    0.0000    0.0000 C   0  0  0  0  0  0  0  0  0  0  0  0
    0.0000    0.0000    0.0000 C   0  0  0  0  0  0  0  0  0  0  0  0
    0.0000    0.0000    0.0000 O   0  0  0  0  0  0  0  0  0  0  0  0
    0.0000    0.0000    0.0000 O   0  0  0  0  0  0  0  0  0  0  0  0
    0.0000    0.0000    0.0000 O   0  0  0  0  0  0  0  0  0  0  0  0
    0.0000    0.0000    0.0000 O   0  0  0  0  0  0  0  0  0  0  0  0
    0.0000    0.0000    0.0000 O   0  0  0  0  0  0  0  0  0  0  0  0
    0.0000    0.0000    0.0000 O   0  0  0  0  0  0  0  0  0  0  0  0
    0.0000    0.0000    0.0000 O   0  0  0  0  0  0  0  0  0  0  0  0
    0.0000    0.0000    0.0000 P   0  0  0  0  0  0  0  0  0  0  0  0
    0.0000    0.0000    0.0000 S   0  0  0  0  0  0  0  0  0  0  0  0
  4  1  1  0  0  0  0 
  4  2  1  0  0  0  0 
  5  1  1  0  0  0  0 
  6  4  1  0  0  0  0 
  7  5  2  0  0  0  0 
  8  5  1  0  0  0  0 
  9  6  2  0  0  0  0 
 10  6  1  0  0  0  0 
 14  3  1  0  0  0  0 
 14 11  1  0  0  0  0 
 14 12  1  0  0  0  0 
 14 13  2  0  0  0  0 
 15  2  1  0  0  0  0 
 15  3  1  0  0  0  0 
M  CHG  1   8  -1
M  CHG  1  10  -1
M  CHG  1  11  -1
M  CHG  1  12  -1
M  END
> <NumberPeaksExplained>
9

> <PeaksExplained>
143.98846_478.0;144.99625_352.0;146.0041_999.0;163.00682_782.0;178.95724_678.0;180.97293_999.0;196.96778_720.0;208.9678_999.0;236.96245_999.0

> <FragmentMolecularFormulas>
143.98846:[C5H5O3S-H]+;144.99625:[C5H5O3S]+;146.0041:[C5H5O3S]+H+;163.00682:[C5H5O4S+H]+H+;178.95724:[C4H5O4PS-H]+;180.97293:[C4H5O4PS]+H+;196.96778:[C4H5O5PS]+H+;208.9678:[C5H7O5PS-H]+;236.96245:[C6H7O6PS-H]+

> <Score>
0.772404013590716

> <XlogP3>
-0.7

> <InChI>
InChI=1S/C6H11O7PS/c7-5(8)1-4(6(9)10)2-15-3-14(11,12)13/h4H,1-3H2,(H,7,8)(H,9,10)(H2,11,12,13)/p-4

> <FragmenterScore_Values>
783.0;348.0;683.0;435.0;448.0;732.0;632.0;632.0;372.0

> <MaximumTreeDepth>
2

> <MonoisotopicMass>
253.96501

> <CompoundName>
2-(phosphonatomethylsulfanylmethyl)butanedioate

> <Identifier>
44290588

> <SimScore>
0.8159

> <MolecularFormula>
C6H11O7PS

> <SMILES>
C(C(CSCP(=O)([O-])[O-])C(=O)[O-])C(=O)[O-]

> <InChIKey2>
UHFFFAOYSA

> <InChIKey1>
ZCARDBJHSMTFCZ

> <FragmenterScore>
924.8200105755681

> <NumberPeaksUsed>
22

$$$$

  CDK     0427161240

 16 18  0  0  0  0  0  0  0  0999 V2000
    0.0000    0.0000    0.0000 C   0  0  0  0  0  0  0  0  0  0  0  0
    0.0000    0.0000    0.0000 C   0  0  0  0  0  0  0  0  0  0  0  0
    0.0000    0.0000    0.0000 C   0  0  0  0  0  0  0  0  0  0  0  0
    0.0000    0.0000    0.0000 C   0  0  0  0  0  0  0  0  0  0  0  0
    0.0000    0.0000    0.0000 C   0  0  0  0  0  0  0  0  0  0  0  0
    0.0000    0.0000    0.0000 C   0  0  0  0  0  0  0  0  0  0  0  0
    0.0000    0.0000    0.0000 C   0  0  0  0  0  0  0  0  0  0  0  0
    0.0000    0.0000    0.0000 C   0  0  0  0  0  0  0  0  0  0  0  0
    0.0000    0.0000    0.0000 C   0  0  0  0  0  0  0  0  0  0  0  0
    0.0000    0.0000    0.0000 C   0  0  0  0  0  0  0  0  0  0  0  0
    0.0000    0.0000    0.0000 Cl  0  0  0  0  0  0  0  0  0  0  0  0
    0.0000    0.0000    0.0000 Cl  0  0  0  0  0  0  0  0  0  0  0  0
    0.0000    0.0000    0.0000 N   0  0  0  0  0  0  0  0  0  0  0  0
    0.0000    0.0000    0.0000 N   0  0  0  0  0  0  0  0  0  0  0  0
    0.0000    0.0000    0.0000 O   0  0  0  0  0  0  0  0  0  0  0  0
    0.0000    0.0000    0.0000 O   0  0  0  0  0  0  0  0  0  0  0  0
  3  1  2  0  0  0  0 
  3  2  1  0  0  0  0 
  4  1  1  0  0  0  0 
  5  2  2  0  0  0  0 
  6  4  2  0  0  0  0 
  6  5  1  0  0  0  0 
  8  7  2  0  0  0  0 
  9  7  1  0  0  0  0 
 10  8  1  0  0  0  0 
 10  9  1  0  0  0  0 
 11  3  1  0  0  0  0 
 12  4  1  0  0  0  0 
 13  5  1  0  0  0  0 
 13  7  1  0  0  0  0 
 14  6  1  0  0  0  0 
 14  8  1  0  0  0  0 
 15  9  2  0  0  0  0 
 16 10  2  0  0  0  0 
M  END
> <NumberPeaksExplained>
11

> <PeaksExplained>
106.94476_274.0;115.98965_95.0;124.99015_146.0;125.99793_207.0;133.95592_777.0;160.96668_387.0;163.00682_782.0;178.97725_391.0;196.96778_720.0;208.9678_999.0;236.96245_999.0

> <FragmentMolecularFormulas>
106.94476:[C3HCl2]+;115.98965:[C4HClNO+H]+H+;124.99015:[C5H2ClN2]+;125.99793:[C5H2ClN2]+H+;133.95592:[C4H2Cl2N]+;160.96668:[C5H3Cl2N2]+;163.00682:[C8H4ClN2]+;178.97725:[C8H2ClNO2]+;196.96778:[C8H4Cl2N2-H]+;208.9678:[C9H4Cl2N2-H]+;236.96245:[C10H4Cl2N2O-H]+

> <Score>
0.44252151973555603

> <XlogP3>
2.4

> <InChI>
InChI=1S/C10H4Cl2N2O2/c11-3-1-4(12)6-5(2-3)13-7-8(14-6)10(16)9(7)15/h1-2,13-14H

> <FragmenterScore_Values>
1834.0;1224.0;796.0;2284.0;843.0;1539.0;1920.0;1920.0;2141.0;1834.0;1034.0

> <MaximumTreeDepth>
2

> <MonoisotopicMass>
253.964983

> <CompoundName>
5,7-dichloro-3,8-dihydrocyclobuta[b]quinoxaline-1,2-dione

> <Identifier>
23354334

> <SimScore>
0.6848

> <MolecularFormula>
C10H4Cl2N2O2

> <SMILES>
C1=C(C=C2C(=C1Cl)NC3=C(N2)C(=O)C3=O)Cl

> <InChIKey2>
UHFFFAOYSA

> <InChIKey1>
IFDJMJFCWGMGJB

> <FragmenterScore>
529.8428663766753

> <NumberPeaksUsed>
22

$$$$

  CDK     0427161240

 18 20  0  0  0  0  0  0  0  0999 V2000
    0.0000    0.0000    0.0000 C   0  0  0  0  0  0  0  0  0  0  0  0
    0.0000    0.0000    0.0000 C   0  0  0  0  0  0  0  0  0  0  0  0
    0.0000    0.0000    0.0000 C   0  0  0  0  0  0  0  0  0  0  0  0
    0.0000    0.0000    0.0000 C   0  0  0  0  0  0  0  0  0  0  0  0
    0.0000    0.0000    0.0000 C   0  0  0  0  0  0  0  0  0  0  0  0
    0.0000    0.0000    0.0000 C   0  0  0  0  0  0  0  0  0  0  0  0
    0.0000    0.0000    0.0000 C   0  0  0  0  0  0  0  0  0  0  0  0
    0.0000    0.0000    0.0000 C   0  0  0  0  0  0  0  0  0  0  0  0
    0.0000    0.0000    0.0000 C   0  0  0  0  0  0  0  0  0  0  0  0
    0.0000    0.0000    0.0000 C   0  0  0  0  0  0  0  0  0  0  0  0
    0.0000    0.0000    0.0000 F   0  0  0  0  0  0  0  0  0  0  0  0
    0.0000    0.0000    0.0000 F   0  0  0  0  0  0  0  0  0  0  0  0
    0.0000    0.0000    0.0000 O   0  0  0  0  0  0  0  0  0  0  0  0
    0.0000    0.0000    0.0000 O   0  0  0  0  0  0  0  0  0  0  0  0
    0.0000    0.0000    0.0000 O   0  0  0  0  0  0  0  0  0  0  0  0
    0.0000    0.0000    0.0000 O   0  0  0  0  0  0  0  0  0  0  0  0
    0.0000    0.0000    0.0000 O   0  0  0  0  0  0  0  0  0  0  0  0
    0.0000    0.0000    0.0000 O   0  0  0  0  0  0  0  0  0  0  0  0
  2  1  2  0  0  0  0 
  3  1  1  0  0  0  0 
  4  2  1  0  0  0  0 
  5  3  2  0  0  0  0 
  6  4  2  0  0  0  0 
  6  5  1  0  0  0  0 
  7  1  1  0  0  0  0 
  8  2  1  0  0  0  0 
  9  3  1  0  0  0  0 
 10  4  1  0  0  0  0 
 11  5  1  0  0  0  0 
 12  6  1  0  0  0  0 
 13  7  2  0  0  0  0 
 14  8  2  0  0  0  0 
 15  9  2  0  0  0  0 
 16 10  2  0  0  0  0 
 17  7  1  0  0  0  0 
 17  9  1  0  0  0  0 
 18  8  1  0  0  0  0 
 18 10  1  0  0  0  0 
M  END
> <NumberPeaksExplained>
8

> <PeaksExplained>
115.98965_95.0;117.9854_384.0;160.96668_387.0;178.97725_391.0;180.97293_999.0;196.96778_720.0;208.9678_999.0;236.96245_999.0

> <FragmentMolecularFormulas>
115.98965:[C4FO3]+H+;117.9854:[C4F2O2]+;160.96668:[C8FO3-2H]+;178.97725:[C8FO4]+;180.97293:[C8F2O3-H]+;196.96778:[C8F2O4-H]+;208.9678:[C9F2O4-H]+;236.96245:[C10F2O5-H]+

> <Score>
0.4378884083033129

> <XlogP3>
0.9

> <InChI>
InChI=1S/C10F2O6/c11-5-3-1(7(13)17-9(3)15)2-4(6(5)12)10(16)18-8(2)14

> <FragmenterScore_Values>
1932.0;1684.0;2184.0;796.0;2196.0;820.0;808.0;1380.0

> <MaximumTreeDepth>
2

> <MonoisotopicMass>
253.966294

> <CompoundName>
4,5-difluorofuro[3,4-e]isobenzofuran-1,3,6,8-tetrone

> <Identifier>
91143120

> <SimScore>
0.6675

> <MolecularFormula>
C10F2O6

> <SMILES>
C12=C3C(=C(C(=C1C(=O)OC2=O)F)F)C(=O)OC3=O

> <InChIKey2>
UHFFFAOYSA

> <InChIKey1>
UZCGSPCEJDVUGL

> <FragmenterScore>
524.2955179833831

> <NumberPeaksUsed>
22

$$$$

  CDK     0427161240

 16 18  0  0  0  0  0  0  0  0999 V2000
    0.0000    0.0000    0.0000 C   0  0  0  0  0  0  0  0  0  0  0  0
    0.0000    0.0000    0.0000 C   0  0  0  0  0  0  0  0  0  0  0  0
    0.0000    0.0000    0.0000 C   0  0  0  0  0  0  0  0  0  0  0  0
    0.0000    0.0000    0.0000 C   0  0  0  0  0  0  0  0  0  0  0  0
    0.0000    0.0000    0.0000 C   0  0  0  0  0  0  0  0  0  0  0  0
    0.0000    0.0000    0.0000 C   0  0  0  0  0  0  0  0  0  0  0  0
    0.0000    0.0000    0.0000 C   0  0  0  0  0  0  0  0  0  0  0  0
    0.0000    0.0000    0.0000 C   0  0  0  0  0  0  0  0  0  0  0  0
    0.0000    0.0000    0.0000 C   0  0  0  0  0  0  0  0  0  0  0  0
    0.0000    0.0000    0.0000 C   0  0  0  0  0  0  0  0  0  0  0  0
    0.0000    0.0000    0.0000 Cl  0  0  0  0  0  0  0  0  0  0  0  0
    0.0000    0.0000    0.0000 Cl  0  0  0  0  0  0  0  0  0  0  0  0
    0.0000    0.0000    0.0000 N   0  0  0  0  0  0  0  0  0  0  0  0
    0.0000    0.0000    0.0000 N   0  0  0  0  0  0  0  0  0  0  0  0
    0.0000    0.0000    0.0000 O   0  0  0  0  0  0  0  0  0  0  0  0
    0.0000    0.0000    0.0000 O   0  0  0  0  0  0  0  0  0  0  0  0
  3  1  2  0  0  0  0 
  4  2  2  0  0  0  0 
  4  3  1  0  0  0  0 
  5  1  1  0  0  0  0 
  6  2  1  0  0  0  0 
  6  5  2  0  0  0  0 
  8  7  2  0  0  0  0 
  9  7  1  0  0  0  0 
 10  8  1  0  0  0  0 
 10  9  1  0  0  0  0 
 11  3  1  0  0  0  0 
 12  4  1  0  0  0  0 
 13  5  1  0  0  0  0 
 13  7  1  0  0  0  0 
 14  6  1  0  0  0  0 
 14  8  1  0  0  0  0 
 15  9  2  0  0  0  0 
 16 10  2  0  0  0  0 
M  END
> <NumberPeaksExplained>
10

> <PeaksExplained>
106.94476_274.0;124.99015_146.0;125.99793_207.0;133.95592_777.0;160.96668_387.0;163.00682_782.0;178.97725_391.0;196.96778_720.0;208.9678_999.0;236.96245_999.0

> <FragmentMolecularFormulas>
106.94476:[C3HCl2]+;124.99015:[C5H4ClN2-2H]+;125.99793:[C5H4ClN2-H]+;133.95592:[C4H2Cl2N]+;160.96668:[C5H3Cl2N2]+;163.00682:[C8H4ClN2]+;178.97725:[C8H2ClNO2]+;196.96778:[C8H4Cl2N2-H]+;208.9678:[C9H4Cl2N2-H]+;236.96245:[C10H4Cl2N2O-H]+

> <Score>
0.43696405957714135

> <XlogP3>
2.4

> <InChI>
InChI=1S/C10H4Cl2N2O2/c11-3-1-5-6(2-4(3)12)14-8-7(13-5)9(15)10(8)16/h1-2,13-14H

> <FragmenterScore_Values>
1834.0;1224.0;796.0;843.0;1539.0;2034.0;1934.0;2141.0;1834.0;1034.0

> <MaximumTreeDepth>
2

> <MonoisotopicMass>
253.964983

> <CompoundName>
5,6-dichloro-3,8-dihydrocyclobuta[b]quinoxaline-1,2-dione

> <Identifier>
23354285

> <SimScore>
0.6841

> <MolecularFormula>
C10H4Cl2N2O2

> <SMILES>
C1=C2C(=CC(=C1Cl)Cl)NC3=C(N2)C(=O)C3=O

> <InChIKey2>
UHFFFAOYSA

> <InChIKey1>
DILDIERPCVXAMD

> <FragmenterScore>
523.1887704993308

> <NumberPeaksUsed>
22

$$$$

  CDK     0427161240

 16 18  0  0  0  0  0  0  0  0999 V2000
    0.0000    0.0000    0.0000 C   0  0  0  0  0  0  0  0  0  0  0  0
    0.0000    0.0000    0.0000 C   0  0  0  0  0  0  0  0  0  0  0  0
    0.0000    0.0000    0.0000 C   0  0  0  0  0  0  0  0  0  0  0  0
    0.0000    0.0000    0.0000 C   0  0  0  0  0  0  0  0  0  0  0  0
    0.0000    0.0000    0.0000 C   0  0  0  0  0  0  0  0  0  0  0  0
    0.0000    0.0000    0.0000 C   0  0  0  0  0  0  0  0  0  0  0  0
    0.0000    0.0000    0.0000 C   0  0  0  0  0  0  0  0  0  0  0  0
    0.0000    0.0000    0.0000 C   0  0  0  0  0  0  0  0  0  0  0  0
    0.0000    0.0000    0.0000 C   0  0  0  0  0  0  0  0  0  0  0  0
    0.0000    0.0000    0.0000 C   0  0  0  0  0  0  0  0  0  0  0  0
    0.0000    0.0000    0.0000 Cl  0  0  0  0  0  0  0  0  0  0  0  0
    0.0000    0.0000    0.0000 Cl  0  0  0  0  0  0  0  0  0  0  0  0
    0.0000    0.0000    0.0000 N   0  0  0  0  0  0  0  0  0  0  0  0
    0.0000    0.0000    0.0000 N   0  0  0  0  0  0  0  0  0  0  0  0
    0.0000    0.0000    0.0000 O   0  0  0  0  0  0  0  0  0  0  0  0
    0.0000    0.0000    0.0000 O   0  0  0  0  0  0  0  0  0  0  0  0
  4  1  1  0  0  0  0 
  5  1  2  0  0  0  0 
  6  2  2  0  0  0  0 
  6  5  1  0  0  0  0 
  7  2  1  0  0  0  0 
  7  4  1  0  0  0  0 
  8  3  2  0  0  0  0 
  9  4  2  0  0  0  0 
  9  8  1  0  0  0  0 
 11  5  1  0  0  0  0 
 12  6  1  0  0  0  0 
 13  3  1  0  0  0  0 
 13  7  2  0  0  0  0 
 14  8  1  0  0  0  0 
 14 10  2  0  0  0  0 
 15 10  1  0  0  0  0 
 16  9  1  0  0  0  0 
 16 10  1  0  0  0  0 
M  END
> <NumberPeaksExplained>
10

> <PeaksExplained>
106.94476_274.0;124.99015_146.0;125.99793_207.0;133.95592_777.0;163.00682_782.0;172.99055_17.0;178.97725_391.0;196.96778_720.0;208.9678_999.0;236.96245_999.0

> <FragmentMolecularFormulas>
106.94476:[C3HCl2]+;124.99015:[C5H2ClN2]+;125.99793:[C5H2ClN2]+H+;133.95592:[C4HCl2N]+H+;163.00682:[C8H3ClN2]+H+;172.99055:[C9H3ClN2-H]+;178.97725:[C8H3ClNO2-H]+;196.96778:[C8H3Cl2N2]+;208.9678:[C9H3Cl2N2]+;236.96245:[C10H2Cl2N2O]+H+

> <Score>
0.42732306247524215

> <XlogP3>
2.7

> <InChI>
InChI=1S/C10H4Cl2N2O2/c11-5-1-4-7(2-6(5)12)13-3-8-9(4)16-10(15)14-8/h1-3H,(H,14,15)

> <FragmenterScore_Values>
2549.0;1224.0;2449.0;360.0;1356.0;2449.0;2449.0;2449.0;2580.0;1794.0

> <MaximumTreeDepth>
2

> <MonoisotopicMass>
253.964983

> <CompoundName>
7,8-dichloro-3H-oxazolo[4,5-c]quinolin-2-one

> <Identifier>
22765649

> <SimScore>
0.6717

> <MolecularFormula>
C10H4Cl2N2O2

> <SMILES>
C1=C2C(=CC(=C1Cl)Cl)N=CC3=C2OC(=O)N3

> <InChIKey2>
UHFFFAOYSA

> <InChIKey1>
LTCUKNBSOMRIJG

> <FragmenterScore>
511.6453464817777

> <NumberPeaksUsed>
22

$$$$

  CDK     0427161240

 16 17  0  0  0  0  0  0  0  0999 V2000
    0.0000    0.0000    0.0000 C   0  0  0  0  0  0  0  0  0  0  0  0
    0.0000    0.0000    0.0000 C   0  0  0  0  0  0  0  0  0  0  0  0
    0.0000    0.0000    0.0000 C   0  0  0  0  0  0  0  0  0  0  0  0
    0.0000    0.0000    0.0000 C   0  0  0  0  0  0  0  0  0  0  0  0
    0.0000    0.0000    0.0000 C   0  0  0  0  0  0  0  0  0  0  0  0
    0.0000    0.0000    0.0000 C   0  0  0  0  0  0  0  0  0  0  0  0
    0.0000    0.0000    0.0000 C   0  0  0  0  0  0  0  0  0  0  0  0
    0.0000    0.0000    0.0000 C   0  0  0  0  0  0  0  0  0  0  0  0
    0.0000    0.0000    0.0000 C   0  0  0  0  0  0  0  0  0  0  0  0
    0.0000    0.0000    0.0000 C   0  0  0  0  0  0  0  0  0  0  0  0
    0.0000    0.0000    0.0000 Cl  0  0  0  0  0  0  0  0  0  0  0  0
    0.0000    0.0000    0.0000 Cl  0  0  0  0  0  0  0  0  0  0  0  0
    0.0000    0.0000    0.0000 N   0  0  0  0  0  0  0  0  0  0  0  0
    0.0000    0.0000    0.0000 N   0  0  0  0  0  0  0  0  0  0  0  0
    0.0000    0.0000    0.0000 O   0  0  0  0  0  0  0  0  0  0  0  0
    0.0000    0.0000    0.0000 O   0  0  0  0  0  0  0  0  0  0  0  0
  2  1  2  0  0  0  0 
  5  3  2  0  0  0  0 
  5  4  1  0  0  0  0 
  6  3  1  0  0  0  0 
  7  1  1  0  0  0  0 
  8  2  1  0  0  0  0 
  8  6  2  0  0  0  0 
  9  6  1  0  0  0  0 
  9  7  2  0  0  0  0 
 10  5  1  0  0  0  0 
 11  9  1  0  0  0  0 
 13  4  3  0  0  0  0 
 14 10  2  0  0  0  0 
 14 12  1  0  0  0  0 
 15  7  1  0  0  0  0 
 16  8  1  0  0  0  0 
 16 10  1  0  0  0  0 
M  END
> <NumberPeaksExplained>
9

> <PeaksExplained>
115.98965_95.0;124.99015_146.0;125.99793_207.0;160.96668_387.0;163.00682_782.0;178.97725_391.0;196.96778_720.0;208.9678_999.0;236.96245_999.0

> <FragmentMolecularFormulas>
115.98965:[C4H2ClNO]+H+;124.99015:[C5HClN2]+H+;125.99793:[C5HClN2+H]+H+;160.96668:[C8H2ClNO-2H]+;163.00682:[C8H3ClN2]+H+;178.97725:[C8H4ClNO2-2H]+;196.96778:[C8H2Cl2N2]+H+;208.9678:[C9H3Cl2N2]+;236.96245:[C10H2Cl2N2O]+H+

> <Score>
0.4261668684688971

> <XlogP3>
3.4

> <InChI>
InChI=1S/C10H4Cl2N2O2/c11-9-6-3-5(4-13)10(14-12)16-8(6)2-1-7(9)15/h1-3,15H

> <FragmenterScore_Values>
1498.0;1944.0;1572.0;360.0;1944.0;1584.0;1684.0;2037.0;1944.0

> <MaximumTreeDepth>
2

> <MonoisotopicMass>
253.964983

> <CompoundName>
5-chloro-2-chloroimino-6-hydroxy-chromene-3-carbonitrile

> <Identifier>
85839980

> <SimScore>
0.6268

> <MolecularFormula>
C10H4Cl2N2O2

> <SMILES>
C1=CC2=C(C=C(C(=NCl)O2)C#N)C(=C1O)Cl

> <InChIKey2>
UHFFFAOYSA

> <InChIKey1>
FLKYHQYRWIBXCN

> <FragmenterScore>
510.2610044349198

> <NumberPeaksUsed>
22

$$$$

  CDK     0427161240

 18 20  0  0  0  0  0  0  0  0999 V2000
    0.0000    0.0000    0.0000 C   0  0  0  0  0  0  0  0  0  0  0  0
    0.0000    0.0000    0.0000 C   0  0  0  0  0  0  0  0  0  0  0  0
    0.0000    0.0000    0.0000 C   0  0  0  0  0  0  0  0  0  0  0  0
    0.0000    0.0000    0.0000 C   0  0  0  0  0  0  0  0  0  0  0  0
    0.0000    0.0000    0.0000 C   0  0  0  0  0  0  0  0  0  0  0  0
    0.0000    0.0000    0.0000 C   0  0  0  0  0  0  0  0  0  0  0  0
    0.0000    0.0000    0.0000 C   0  0  0  0  0  0  0  0  0  0  0  0
    0.0000    0.0000    0.0000 C   0  0  0  0  0  0  0  0  0  0  0  0
    0.0000    0.0000    0.0000 C   0  0  0  0  0  0  0  0  0  0  0  0
    0.0000    0.0000    0.0000 C   0  0  0  0  0  0  0  0  0  0  0  0
    0.0000    0.0000    0.0000 F   0  0  0  0  0  0  0  0  0  0  0  0
    0.0000    0.0000    0.0000 F   0  0  0  0  0  0  0  0  0  0  0  0
    0.0000    0.0000    0.0000 O   0  0  0  0  0  0  0  0  0  0  0  0
    0.0000    0.0000    0.0000 O   0  0  0  0  0  0  0  0  0  0  0  0
    0.0000    0.0000    0.0000 O   0  0  0  0  0  0  0  0  0  0  0  0
    0.0000    0.0000    0.0000 O   0  0  0  0  0  0  0  0  0  0  0  0
    0.0000    0.0000    0.0000 O   0  0  0  0  0  0  0  0  0  0  0  0
    0.0000    0.0000    0.0000 O   0  0  0  0  0  0  0  0  0  0  0  0
  2  1  1  0  0  0  0 
  4  3  2  0  0  0  0 
  5  1  2  0  0  0  0 
  5  3  1  0  0  0  0 
  6  2  2  0  0  0  0 
  6  4  1  0  0  0  0 
  7  1  1  0  0  0  0 
  8  2  1  0  0  0  0 
  9  3  1  0  0  0  0 
 10  4  1  0  0  0  0 
 11  5  1  0  0  0  0 
 12  6  1  0  0  0  0 
 13  7  2  0  0  0  0 
 14  8  2  0  0  0  0 
 15  9  2  0  0  0  0 
 16 10  2  0  0  0  0 
 17  7  1  0  0  0  0 
 17  8  1  0  0  0  0 
 18  9  1  0  0  0  0 
 18 10  1  0  0  0  0 
M  END
> <NumberPeaksExplained>
7

> <PeaksExplained>
115.98965_95.0;160.96668_387.0;178.97725_391.0;180.97293_999.0;196.96778_720.0;208.9678_999.0;236.96245_999.0

> <FragmentMolecularFormulas>
115.98965:[C4FO3]+H+;160.96668:[C8FO3-2H]+;178.97725:[C8FO4]+;180.97293:[C8F2O3-H]+;196.96778:[C8F2O4-H]+;208.9678:[C9F2O4-H]+;236.96245:[C10F2O5-H]+

> <Score>
0.41795168908599944

> <XlogP3>
0.9

> <InChI>
InChI=1S/C10F2O6/c11-5-1-2(8(14)17-7(1)13)6(12)4-3(5)9(15)18-10(4)16

> <FragmenterScore_Values>
1932.0;2296.0;2184.0;796.0;820.0;808.0;1380.0

> <MaximumTreeDepth>
2

> <MonoisotopicMass>
253.966294

> <CompoundName>
4,8-difluorofuro[3,4-f]isobenzofuran-1,3,5,7-tetrone

> <Identifier>
15457419

> <SimScore>
0.655

> <MolecularFormula>
C10F2O6

> <SMILES>
C12=C(C(=C3C(=C1F)C(=O)OC3=O)F)C(=O)OC2=O

> <InChIKey2>
UHFFFAOYSA

> <InChIKey1>
WNMRFYNFVYCNDL

> <FragmenterScore>
500.42475015595454

> <NumberPeaksUsed>
22

$$$$

  CDK     0427161240

 16 17  0  0  0  0  0  0  0  0999 V2000
    0.0000    0.0000    0.0000 C   0  0  0  0  0  0  0  0  0  0  0  0
    0.0000    0.0000    0.0000 C   0  0  0  0  0  0  0  0  0  0  0  0
    0.0000    0.0000    0.0000 C   0  0  0  0  0  0  0  0  0  0  0  0
    0.0000    0.0000    0.0000 C   0  0  0  0  0  0  0  0  0  0  0  0
    0.0000    0.0000    0.0000 C   0  0  0  0  0  0  0  0  0  0  0  0
    0.0000    0.0000    0.0000 C   0  0  0  0  0  0  0  0  0  0  0  0
    0.0000    0.0000    0.0000 C   0  0  0  0  0  0  0  0  0  0  0  0
    0.0000    0.0000    0.0000 C   0  0  0  0  0  0  0  0  0  0  0  0
    0.0000    0.0000    0.0000 C   0  0  0  0  0  0  0  0  0  0  0  0
    0.0000    0.0000    0.0000 C   0  0  0  0  0  0  0  0  0  0  0  0
    0.0000    0.0000    0.0000 Cl  0  0  0  0  0  0  0  0  0  0  0  0
    0.0000    0.0000    0.0000 Cl  0  0  0  0  0  0  0  0  0  0  0  0
    0.0000    0.0000    0.0000 N   0  0  0  0  0  0  0  0  0  0  0  0
    0.0000    0.0000    0.0000 N   0  0  0  0  0  0  0  0  0  0  0  0
    0.0000    0.0000    0.0000 O   0  0  0  0  0  0  0  0  0  0  0  0
    0.0000    0.0000    0.0000 O   0  0  0  0  0  0  0  0  0  0  0  0
  2  1  2  0  0  0  0 
  5  1  1  0  0  0  0 
  5  3  2  0  0  0  0 
  6  2  1  0  0  0  0 
  7  3  1  0  0  0  0 
  7  6  2  0  0  0  0 
  8  4  1  0  0  0  0 
  9  5  1  0  0  0  0 
 10  8  1  0  0  0  0 
 11  6  1  0  0  0  0 
 12  7  1  0  0  0  0 
 13  4  2  0  0  0  0 
 13  9  1  0  0  0  0 
 14  9  2  0  0  0  0 
 14 10  1  0  0  0  0 
 15  8  2  0  0  0  0 
 16 10  2  0  0  0  0 
M  END
> <NumberPeaksExplained>
9

> <PeaksExplained>
106.94476_274.0;124.99015_146.0;125.99793_207.0;160.96668_387.0;163.00682_782.0;178.97725_391.0;196.96778_720.0;208.9678_999.0;236.96245_999.0

> <FragmentMolecularFormulas>
106.94476:[C3HCl2]+;124.99015:[C5H2ClN2]+;125.99793:[C5H2ClN2]+H+;160.96668:[C5HCl2N2+H]+H+;163.00682:[C8H4ClN2]+;178.97725:[C8H3ClNO2-H]+;196.96778:[C8H4Cl2N2-H]+;208.9678:[C9H4Cl2N2-H]+;236.96245:[C10H4Cl2N2O-H]+

> <Score>
0.41362531582189116

> <XlogP3>
2.4

> <InChI>
InChI=1S/C10H4Cl2N2O2/c11-6-2-1-5(3-7(6)12)9-13-4-8(15)10(16)14-9/h1-4H

> <FragmenterScore_Values>
1977.0;1224.0;753.0;843.0;1496.0;1877.0;1877.0;2242.0;991.0

> <MaximumTreeDepth>
2

> <MonoisotopicMass>
253.964983

> <CompoundName>
2-(3,4-dichlorophenyl)pyrimidine-4,5-dione

> <Identifier>
76028184

> <SimScore>
0.6327

> <MolecularFormula>
C10H4Cl2N2O2

> <SMILES>
C1=CC(=C(C=C1C2=NC(=O)C(=O)C=N2)Cl)Cl

> <InChIKey2>
UHFFFAOYSA

> <InChIKey1>
DXFYIYJEHFUOMK

> <FragmenterScore>
495.2446675858676

> <NumberPeaksUsed>
22

$$$$

  CDK     0427161240

 15 15  0  0  0  0  0  0  0  0999 V2000
    0.0000    0.0000    0.0000 C   0  0  0  0  0  0  0  0  0  0  0  0
    0.0000    0.0000    0.0000 C   0  0  0  0  0  0  0  0  0  0  0  0
    0.0000    0.0000    0.0000 C   0  0  0  0  0  0  0  0  0  0  0  0
    0.0000    0.0000    0.0000 C   0  0  0  0  0  0  0  0  0  0  0  0
    0.0000    0.0000    0.0000 C   0  0  0  0  0  0  0  0  0  0  0  0
    0.0000    0.0000    0.0000 N   0  0  0  0  0  0  0  0  0  0  0  0
    0.0000    0.0000    0.0000 N   0  0  0  0  0  0  0  0  0  0  0  0
    0.0000    0.0000    0.0000 O   0  0  0  0  0  0  0  0  0  0  0  0
    0.0000    0.0000    0.0000 O   0  0  0  0  0  0  0  0  0  0  0  0
    0.0000    0.0000    0.0000 O   0  0  0  0  0  0  0  0  0  0  0  0
    0.0000    0.0000    0.0000 O   0  0  0  0  0  0  0  0  0  0  0  0
    0.0000    0.0000    0.0000 O   0  0  0  0  0  0  0  0  0  0  0  0
    0.0000    0.0000    0.0000 O   0  0  0  0  0  0  0  0  0  0  0  0
    0.0000    0.0000    0.0000 S   0  0  0  0  0  0  0  0  0  0  0  0
    0.0000    0.0000    0.0000 S   0  0  0  0  0  0  0  0  0  0  0  0
  3  1  2  0  0  0  0 
  3  2  1  0  0  0  0 
  4  1  1  0  0  0  0 
  6  3  1  0  0  0  0 
  6  5  2  0  0  0  0 
  7  4  2  0  0  0  0 
  7  5  1  0  0  0  0 
  8  4  1  0  0  0  0 
  9  5  1  0  0  0  0 
 14  2  1  0  0  0  0 
 14 13  1  0  0  0  0 
 15 10  1  0  0  0  0 
 15 11  2  0  0  0  0 
 15 12  2  0  0  0  0 
 15 13  1  0  0  0  0 
M  END
> <NumberPeaksExplained>
5

> <PeaksExplained>
124.93547_613.0;151.94641_962.0;196.96778_720.0;208.9678_999.0;236.96245_999.0

> <FragmentMolecularFormulas>
124.93547:[CHO3S2]+;151.94641:[C2HNO3S2]+H+;196.96778:[C3H4N2O4S2]+H+;208.9678:[C4H3N2O4S2+H]+H+;236.96245:[C5H4N2O5S2]+H+

> <Score>
0.38887747477682033

> <XlogP3>
-1.8

> <InChI>
InChI=1S/C5H6N2O6S2/c8-4-1-3(6-5(9)7-4)2-14-13-15(10,11)12/h1H,2H2,(H,10,11,12)(H2,6,7,8,9)

> <FragmenterScore_Values>
1747.0;348.0;1673.0;696.0;1573.0

> <MaximumTreeDepth>
2

> <MonoisotopicMass>
253.966728

> <CompoundName>
(2,4-dioxo-1H-pyrimidin-6-yl)methylsulfanyl hydrogen sulfate

> <Identifier>
67945017

> <SimScore>
0.6543

> <MolecularFormula>
C5H6N2O6S2

> <SMILES>
C1=C(NC(=O)NC1=O)CSOS(=O)(=O)O

> <InChIKey2>
UHFFFAOYSA

> <InChIKey1>
LNEWUBJTMTYTIW

> <FragmenterScore>
465.6134147514507

> <NumberPeaksUsed>
22

$$$$

  CDK     0427161240

 14 14  0  0  0  0  0  0  0  0999 V2000
    0.0000    0.0000    0.0000 C   0  0  0  0  0  0  0  0  0  0  0  0
    0.0000    0.0000    0.0000 C   0  0  0  0  0  0  0  0  0  0  0  0
    0.0000    0.0000    0.0000 C   0  0  0  0  0  0  0  0  0  0  0  0
    0.0000    0.0000    0.0000 C   0  0  0  0  0  0  0  0  0  0  0  0
    0.0000    0.0000    0.0000 C   0  0  0  0  0  0  0  0  0  0  0  0
    0.0000    0.0000    0.0000 C   0  0  0  0  0  0  0  0  0  0  0  0
    0.0000    0.0000    0.0000 C   0  0  0  0  0  0  0  0  0  0  0  0
    0.0000    0.0000    0.0000 C   0  0  0  0  0  0  0  0  0  0  0  0
    0.0000    0.0000    0.0000 C   0  0  0  0  0  0  0  0  0  0  0  0
    0.0000    0.0000    0.0000 Cl  0  0  0  0  0  0  0  0  0  0  0  0
    0.0000    0.0000    0.0000 Cl  0  0  0  0  0  0  0  0  0  0  0  0
    0.0000    0.0000    0.0000 Cl  0  0  0  0  0  0  0  0  0  0  0  0
    0.0000    0.0000    0.0000 O   0  0  0  0  0  0  0  0  0  0  0  0
    0.0000    0.0000    0.0000 O   0  0  0  0  0  0  0  0  0  0  0  0
  2  1  3  0  0  0  0 
  3  1  1  0  0  0  0 
  4  2  1  0  0  0  0 
  5  3  1  0  0  0  0 
  7  4  1  0  0  0  0 
  7  6  1  0  0  0  0 
  9  6  1  0  0  0  0 
  9  8  1  0  0  0  0 
 10  7  1  0  0  0  0 
 11  9  1  0  0  0  0 
 12  9  1  0  0  0  0 
 13  8  2  0  0  0  0 
 14  5  1  0  0  0  0 
 14  8  1  0  0  0  0 
M  END
> <NumberPeaksExplained>
6

> <PeaksExplained>
106.94476_274.0;163.00682_782.0;172.99055_17.0;196.96778_720.0;208.9678_999.0;236.96245_999.0

> <FragmentMolecularFormulas>
106.94476:[C3H3Cl2-2H]+;163.00682:[C7H7Cl2+H]+H+;172.99055:[C8H9Cl2-2H]+;196.96778:[C7H7Cl3]+H+;208.9678:[C8H9Cl3-H]+;236.96245:[C9H9Cl3O-H]+

> <Score>
0.3754081224442627

> <XlogP3>
3.1

> <InChI>
InChI=1S/C9H9Cl3O2/c10-7-4-2-1-3-5-14-8(13)9(11,12)6-7/h7H,3-6H2

> <FragmenterScore_Values>
1234.0;696.0;820.0;808.0;1134.0;1246.0

> <MaximumTreeDepth>
2

> <MonoisotopicMass>
253.966813

> <CompoundName>
3,3,5-trichloro-1-oxacyclodec-7-yn-2-one

> <Identifier>
15205979

> <SimScore>
0.5993

> <MolecularFormula>
C9H9Cl3O2

> <SMILES>
C1COC(=O)C(CC(CC#C1)Cl)(Cl)Cl

> <InChIKey2>
UHFFFAOYSA

> <InChIKey1>
SCACJEYPQAUFMU

> <FragmenterScore>
449.48619849226304

> <NumberPeaksUsed>
22

$$$$

  CDK     0427161240

 14 14  0  0  0  0  0  0  0  0999 V2000
    0.0000    0.0000    0.0000 C   0  0  0  0  0  0  0  0  0  0  0  0
    0.0000    0.0000    0.0000 C   0  0  0  0  0  0  0  0  0  0  0  0
    0.0000    0.0000    0.0000 C   0  0  0  0  0  0  0  0  0  0  0  0
    0.0000    0.0000    0.0000 C   0  0  0  0  0  0  0  0  0  0  0  0
    0.0000    0.0000    0.0000 C   0  0  0  0  0  0  0  0  0  0  0  0
    0.0000    0.0000    0.0000 C   0  0  0  0  0  0  0  0  0  0  0  0
    0.0000    0.0000    0.0000 C   0  0  0  0  0  0  0  0  0  0  0  0
    0.0000    0.0000    0.0000 C   0  0  0  0  0  0  0  0  0  0  0  0
    0.0000    0.0000    0.0000 C   0  0  0  0  0  0  0  0  0  0  0  0
    0.0000    0.0000    0.0000 Cl  0  0  0  0  0  0  0  0  0  0  0  0
    0.0000    0.0000    0.0000 Cl  0  0  0  0  0  0  0  0  0  0  0  0
    0.0000    0.0000    0.0000 Cl  0  0  0  0  0  0  0  0  0  0  0  0
    0.0000    0.0000    0.0000 O   0  0  0  0  0  0  0  0  0  0  0  0
    0.0000    0.0000    0.0000 O   0  0  0  0  0  0  0  0  0  0  0  0
  2  1  1  0  0  0  0 
  3  2  1  0  0  0  0 
  4  3  1  0  0  0  0 
  5  4  2  0  0  0  0 
  6  5  1  0  0  0  0 
  7  6  2  0  0  0  0 
  8  4  1  0  0  0  0 
  9  7  1  0  0  0  0 
  9  8  2  0  0  0  0 
 10  5  1  0  0  0  0 
 11  6  1  0  0  0  0 
 12  7  1  0  0  0  0 
 13  8  1  0  0  0  0 
 14  9  1  0  0  0  0 
M  END
> <NumberPeaksExplained>
5

> <PeaksExplained>
106.94476_274.0;163.00682_782.0;196.96778_720.0;208.9678_999.0;236.96245_999.0

> <FragmentMolecularFormulas>
106.94476:[C3Cl2]+H+;163.00682:[C7H7Cl2+H]+H+;196.96778:[C7H7Cl3]+H+;208.9678:[C8H6Cl3+H]+H+;236.96245:[C9H7Cl3O]+H+

> <Score>
0.37274645285841496

> <XlogP3>
4.4

> <InChI>
InChI=1S/C9H9Cl3O2/c1-2-3-4-5(10)6(11)7(12)9(14)8(4)13/h13-14H,2-3H2,1H3

> <FragmenterScore_Values>
1562.0;1224.0;360.0;1684.0;1662.0

> <MaximumTreeDepth>
2

> <MonoisotopicMass>
253.966813

> <CompoundName>
3,4,5-trichloro-6-propyl-benzene-1,2-diol

> <Identifier>
17970459

> <SimScore>
0.5993

> <MolecularFormula>
C9H9Cl3O2

> <SMILES>
CCCC1=C(C(=C(C(=C1Cl)Cl)Cl)O)O

> <InChIKey2>
UHFFFAOYSA

> <InChIKey1>
YLGQITLCWONOOJ

> <FragmenterScore>
446.299310217189

> <NumberPeaksUsed>
22

$$$$

  CDK     0427161240

 14 14  0  0  0  0  0  0  0  0999 V2000
    0.0000    0.0000    0.0000 C   0  0  0  0  0  0  0  0  0  0  0  0
    0.0000    0.0000    0.0000 C   0  0  0  0  0  0  0  0  0  0  0  0
    0.0000    0.0000    0.0000 C   0  0  0  0  0  0  0  0  0  0  0  0
    0.0000    0.0000    0.0000 C   0  0  0  0  0  0  0  0  0  0  0  0
    0.0000    0.0000    0.0000 C   0  0  0  0  0  0  0  0  0  0  0  0
    0.0000    0.0000    0.0000 C   0  0  0  0  0  0  0  0  0  0  0  0
    0.0000    0.0000    0.0000 C   0  0  0  0  0  0  0  0  0  0  0  0
    0.0000    0.0000    0.0000 C   0  0  0  0  0  0  0  0  0  0  0  0
    0.0000    0.0000    0.0000 C   0  0  0  0  0  0  0  0  0  0  0  0
    0.0000    0.0000    0.0000 Cl  0  0  0  0  0  0  0  0  0  0  0  0
    0.0000    0.0000    0.0000 Cl  0  0  0  0  0  0  0  0  0  0  0  0
    0.0000    0.0000    0.0000 Cl  0  0  0  0  0  0  0  0  0  0  0  0
    0.0000    0.0000    0.0000 O   0  0  0  0  0  0  0  0  0  0  0  0
    0.0000    0.0000    0.0000 O   0  0  0  0  0  0  0  0  0  0  0  0
  5  4  1  0  0  0  0 
  6  4  2  0  0  0  0 
  7  5  2  0  0  0  0 
  8  6  1  0  0  0  0 
  9  1  1  0  0  0  0 
  9  2  1  0  0  0  0 
  9  3  1  0  0  0  0 
  9  7  1  0  0  0  0 
 10  4  1  0  0  0  0 
 11  5  1  0  0  0  0 
 12  6  1  0  0  0  0 
 13  8  2  0  0  0  0 
 14  7  1  0  0  0  0 
 14  8  1  0  0  0  0 
M  END
> <NumberPeaksExplained>
6

> <PeaksExplained>
106.94476_274.0;163.00682_782.0;172.99055_17.0;196.96778_720.0;208.9678_999.0;236.96245_999.0

> <FragmentMolecularFormulas>
106.94476:[C3Cl2]+H+;163.00682:[C7H9Cl2]+;172.99055:[C8H9Cl2-2H]+;196.96778:[C7H6Cl3+H]+H+;208.9678:[C8H9Cl3-H]+;236.96245:[C9H9Cl3O-H]+

> <Score>
0.36154199618514354

> <XlogP3>
4.0

> <InChI>
InChI=1S/C9H9Cl3O2/c1-9(2,3)7-5(11)4(10)6(12)8(13)14-7/h1-3H3

> <FragmenterScore_Values>
1298.0;1156.0;820.0;808.0;972.0;1246.0

> <MaximumTreeDepth>
2

> <MonoisotopicMass>
253.966813

> <CompoundName>
6-tert-butyl-3,4,5-trichloro-pyran-2-one

> <Identifier>
12328178

> <SimScore>
0.5993

> <MolecularFormula>
C9H9Cl3O2

> <SMILES>
CC(C)(C)C1=C(C(=C(C(=O)O1)Cl)Cl)Cl

> <InChIKey2>
UHFFFAOYSA

> <InChIKey1>
GLVXJCWEESTHBH

> <FragmenterScore>
432.88391418513385

> <NumberPeaksUsed>
22

$$$$

  CDK     0427161240

 16 18  0  0  0  0  0  0  0  0999 V2000
    0.0000    0.0000    0.0000 C   0  0  0  0  0  0  0  0  0  0  0  0
    0.0000    0.0000    0.0000 C   0  0  0  0  0  0  0  0  0  0  0  0
    0.0000    0.0000    0.0000 C   0  0  0  0  0  0  0  0  0  0  0  0
    0.0000    0.0000    0.0000 C   0  0  0  0  0  0  0  0  0  0  0  0
    0.0000    0.0000    0.0000 C   0  0  0  0  0  0  0  0  0  0  0  0
    0.0000    0.0000    0.0000 C   0  0  0  0  0  0  0  0  0  0  0  0
    0.0000    0.0000    0.0000 C   0  0  0  0  0  0  0  0  0  0  0  0
    0.0000    0.0000    0.0000 C   0  0  0  0  0  0  0  0  0  0  0  0
    0.0000    0.0000    0.0000 Cl  0  0  0  0  0  0  0  0  0  0  0  0
    0.0000    0.0000    0.0000 N   0  0  0  0  0  0  0  0  0  0  0  0
    0.0000    0.0000    0.0000 N   0  0  0  0  0  0  0  0  0  0  0  0
    0.0000    0.0000    0.0000 N   0  0  0  0  0  0  0  0  0  0  0  0
    0.0000    0.0000    0.0000 N   0  0  0  0  0  0  0  0  0  0  0  0
    0.0000    0.0000    0.0000 O   0  0  0  0  0  0  0  0  0  0  0  0
    0.0000    0.0000    0.0000 O   0  0  0  0  0  0  0  0  0  0  0  0
    0.0000    0.0000    0.0000 S   0  0  0  0  0  0  0  0  0  0  0  0
  2  1  2  0  0  0  0 
  4  3  1  0  0  0  0 
  5  3  1  0  0  0  0 
  6  5  2  0  0  0  0 
  7  4  1  0  0  0  0 
  9  2  1  0  0  0  0 
 10  1  1  0  0  0  0 
 10  7  2  0  0  0  0 
 11  2  1  0  0  0  0 
 11  4  2  0  0  0  0 
 12  3  2  0  0  0  0 
 12  8  1  0  0  0  0 
 13  6  1  0  0  0  0 
 13  8  1  0  0  0  0 
 14  6  1  0  0  0  0 
 15  8  2  0  0  0  0 
 16  5  1  0  0  0  0 
 16  7  1  0  0  0  0 
M  END
> <NumberPeaksExplained>
6

> <PeaksExplained>
124.99015_146.0;125.99793_207.0;160.96668_387.0;178.97725_391.0;208.9678_999.0;236.96245_999.0

> <FragmentMolecularFormulas>
124.99015:[C5HClN2]+H+;125.99793:[C5HClN2+H]+H+;160.96668:[C6N3OS-H]+;178.97725:[C6H2N3O2S-H]+;208.9678:[C7HClN4S]+H+;236.96245:[C8HClN4OS]+H+

> <Score>
0.359484715232629

> <XlogP3>
1.0

> <InChI>
InChI=1S/C8H3ClN4O2S/c9-2-1-10-7-4(11-2)3-5(16-7)6(14)13-8(15)12-3/h1H,(H2,12,13,14,15)

> <FragmenterScore_Values>
1326.0;360.0;970.0;2410.0;2510.0;1686.0

> <MaximumTreeDepth>
2

> <MonoisotopicMass>
253.966524

> <CompoundName>
8-chloro-1H-pyrazino[1,2]thieno[3,4-b]pyrimidine-2,4-dione

> <Identifier>
88187247

> <SimScore>
0.5149

> <MolecularFormula>
C8H3ClN4O2S

> <SMILES>
C1=C(N=C2C3=C(C(=O)NC(=O)N3)SC2=N1)Cl

> <InChIKey2>
UHFFFAOYSA

> <InChIKey1>
ZKQZXYVAOXFXOF

> <FragmenterScore>
430.4206766063742

> <NumberPeaksUsed>
22

$$$$

  CDK     0427161240

 14 14  0  0  0  0  0  0  0  0999 V2000
    0.0000    0.0000    0.0000 C   0  0  0  0  0  0  0  0  0  0  0  0
    0.0000    0.0000    0.0000 C   0  0  0  0  0  0  0  0  0  0  0  0
    0.0000    0.0000    0.0000 C   0  0  0  0  0  0  0  0  0  0  0  0
    0.0000    0.0000    0.0000 C   0  0  0  0  0  0  0  0  0  0  0  0
    0.0000    0.0000    0.0000 C   0  0  0  0  0  0  0  0  0  0  0  0
    0.0000    0.0000    0.0000 C   0  0  0  0  0  0  0  0  0  0  0  0
    0.0000    0.0000    0.0000 C   0  0  0  0  0  0  0  0  0  0  0  0
    0.0000    0.0000    0.0000 C   0  0  0  0  0  0  0  0  0  0  0  0
    0.0000    0.0000    0.0000 Cl  0  0  0  0  0  0  0  0  0  0  0  0
    0.0000    0.0000    0.0000 Cl  0  0  0  0  0  0  0  0  0  0  0  0
    0.0000    0.0000    0.0000 O   0  0  0  0  0  0  0  0  0  0  0  0
    0.0000    0.0000    0.0000 O   0  0  0  0  0  0  0  0  0  0  0  0
    0.0000    0.0000    0.0000 O   0  0  0  0  0  0  0  0  0  0  0  0
    0.0000    0.0000    0.0000 P   0  0  0  0  0  0  0  0  0  0  0  0
  5  3  2  0  0  0  0 
  5  4  1  0  0  0  0 
  6  3  1  0  0  0  0 
  7  4  2  0  0  0  0 
  8  6  2  0  0  0  0 
  8  7  1  0  0  0  0 
  9  5  1  0  0  0  0 
 10  6  1  0  0  0  0 
 13  1  1  0  0  0  0 
 13  8  1  0  0  0  0 
 14  2  1  0  0  0  0 
 14  7  1  0  0  0  0 
 14 11  1  0  0  0  0 
 14 12  2  0  0  0  0 
M  END
> <NumberPeaksExplained>
4

> <PeaksExplained>
106.94476_274.0;196.96778_720.0;208.9678_999.0;236.96245_999.0

> <FragmentMolecularFormulas>
106.94476:[C3HCl2]+;196.96778:[C6H6Cl2OP+H]+H+;208.9678:[C7H6Cl2OP+H]+H+;236.96245:[C8H7Cl2O2P]+H+

> <Score>
0.3492872379617005

> <XlogP3>
1.7

> <InChI>
InChI=1S/C8H9Cl2O3P/c1-13-8-6(10)3-5(9)4-7(8)14(2,11)12/h3-4H,1-2H3,(H,11,12)

> <FragmenterScore_Values>
1224.0;1868.0;335.0;1004.0

> <MaximumTreeDepth>
2

> <MonoisotopicMass>
253.966636

> <CompoundName>
(3,5-dichloro-2-methoxy-phenyl)-methyl-phosphinic acid

> <Identifier>
70627295

> <SimScore>
0.539

> <MolecularFormula>
C8H9Cl2O3P

> <SMILES>
COC1=C(C=C(C=C1P(=O)(C)O)Cl)Cl

> <InChIKey2>
UHFFFAOYSA

> <InChIKey1>
NHABZZTUNAXYLR

> <FragmenterScore>
418.2109639798142

> <NumberPeaksUsed>
22

$$$$

  CDK     0427161240

 16 17  0  0  0  0  0  0  0  0999 V2000
    0.0000    0.0000    0.0000 C   0  0  0  0  0  0  0  0  0  0  0  0
    0.0000    0.0000    0.0000 C   0  0  0  0  0  0  0  0  0  0  0  0
    0.0000    0.0000    0.0000 C   0  0  0  0  0  0  0  0  0  0  0  0
    0.0000    0.0000    0.0000 C   0  0  0  0  0  0  0  0  0  0  0  0
    0.0000    0.0000    0.0000 C   0  0  0  0  0  0  0  0  0  0  0  0
    0.0000    0.0000    0.0000 C   0  0  0  0  0  0  0  0  0  0  0  0
    0.0000    0.0000    0.0000 C   0  0  0  0  0  0  0  0  0  0  0  0
    0.0000    0.0000    0.0000 C   0  0  0  0  0  0  0  0  0  0  0  0
    0.0000    0.0000    0.0000 C   0  0  0  0  0  0  0  0  0  0  0  0
    0.0000    0.0000    0.0000 C   0  0  0  0  0  0  0  0  0  0  0  0
    0.0000    0.0000    0.0000 Cl  0  0  0  0  0  0  0  0  0  0  0  0
    0.0000    0.0000    0.0000 Cl  0  0  0  0  0  0  0  0  0  0  0  0
    0.0000    0.0000    0.0000 N   0  0  0  0  0  0  0  0  0  0  0  0
    0.0000    0.0000    0.0000 N   0  0  0  0  0  0  0  0  0  0  0  0
    0.0000    0.0000    0.0000 O   0  0  0  0  0  0  0  0  0  0  0  0
    0.0000    0.0000    0.0000 O   0  0  0  0  0  0  0  0  0  0  0  0
  2  1  2  0  0  0  0 
  5  3  2  0  0  0  0 
  5  4  1  0  0  0  0 
  6  3  1  0  0  0  0 
  7  4  2  0  0  0  0 
  8  1  1  0  0  0  0 
  8  6  2  0  0  0  0 
  9  2  1  0  0  0  0 
 10  6  1  0  0  0  0 
 10  7  1  0  0  0  0 
 11  5  1  0  0  0  0 
 12  7  1  0  0  0  0 
 13  8  1  0  0  0  0 
 14  9  1  0  0  0  0 
 14 13  2  0  0  0  0 
 15  9  2  0  0  0  0 
 16 10  2  0  0  0  0 
M  END
> <NumberPeaksExplained>
7

> <PeaksExplained>
106.94476_274.0;115.98965_95.0;163.00682_782.0;178.97725_391.0;196.96778_720.0;208.9678_999.0;236.96245_999.0

> <FragmentMolecularFormulas>
106.94476:[C3HCl2]+;115.98965:[C4ClNO+2H]+H+;163.00682:[C8H4ClN2]+;178.97725:[C8H3ClNO2-H]+;196.96778:[C8H3Cl2N2]+;208.9678:[C9H4Cl2N2-H]+;236.96245:[C10H4Cl2N2O-H]+

> <Score>
0.3473804760932044

> <XlogP3>
2.7

> <InChI>
InChI=1S/C10H4Cl2N2O2/c11-5-3-6(10(16)7(12)4-5)8-1-2-9(15)14-13-8/h1-4H

> <FragmenterScore_Values>
1510.0;960.0;1660.0;1917.0;843.0;1496.0;1703.0

> <MaximumTreeDepth>
2

> <MonoisotopicMass>
253.964983

> <CompoundName>
6-(3,5-dichloro-6-oxo-cyclohexa-2,4-dien-1-ylidene)pyridazin-3-one

> <Identifier>
76082083

> <SimScore>
0.6142

> <MolecularFormula>
C10H4Cl2N2O2

> <SMILES>
C1=CC(=O)N=NC1=C2C=C(C=C(C2=O)Cl)Cl

> <InChIKey2>
UHFFFAOYSA

> <InChIKey1>
AKWZOBKLRGUZQK

> <FragmenterScore>
415.927946931275

> <NumberPeaksUsed>
22

$$$$

  CDK     0427161240

 15 14  0  0  0  0  0  0  0  0999 V2000
    0.0000    0.0000    0.0000 C   0  0  0  0  0  0  0  0  0  0  0  0
    0.0000    0.0000    0.0000 C   0  0  0  0  0  0  0  0  0  0  0  0
    0.0000    0.0000    0.0000 C   0  0  0  0  0  0  0  0  0  0  0  0
    0.0000    0.0000    0.0000 C   0  0  0  0  0  0  0  0  0  0  0  0
    0.0000    0.0000    0.0000 C   0  0  0  0  0  0  0  0  0  0  0  0
    0.0000    0.0000    0.0000 N   0  0  0  0  0  0  0  0  0  0  0  0
    0.0000    0.0000    0.0000 N   0  0  0  0  0  0  0  0  0  0  0  0
    0.0000    0.0000    0.0000 O   0  0  0  0  0  0  0  0  0  0  0  0
    0.0000    0.0000    0.0000 O   0  0  0  0  0  0  0  0  0  0  0  0
    0.0000    0.0000    0.0000 O   0  0  0  0  0  0  0  0  0  0  0  0
    0.0000    0.0000    0.0000 O   0  0  0  0  0  0  0  0  0  0  0  0
    0.0000    0.0000    0.0000 O   0  0  0  0  0  0  0  0  0  0  0  0
    0.0000    0.0000    0.0000 O   0  0  0  0  0  0  0  0  0  0  0  0
    0.0000    0.0000    0.0000 S   0  0  0  0  0  0  0  0  0  0  0  0
    0.0000    0.0000    0.0000 S   0  0  0  0  0  0  0  0  0  0  0  0
  5  1  1  0  0  0  0 
  5  2  2  0  0  0  0 
  6  3  2  0  0  0  0 
  7  4  2  0  0  0  0 
  8  3  2  0  0  0  0 
  9  4  1  0  0  0  0 
 14  2  1  0  0  0  0 
 14  6  1  0  0  0  0 
 14 10  2  0  0  0  0 
 14 11  2  0  0  0  0 
 15  5  1  0  0  0  0 
 15  7  1  0  0  0  0 
 15 12  2  0  0  0  0 
 15 13  2  0  0  0  0 
M  END
> <NumberPeaksExplained>
3

> <PeaksExplained>
196.96778_720.0;208.9678_999.0;236.96245_999.0

> <FragmentMolecularFormulas>
196.96778:[C3H3N2O4S2+H]+H+;208.9678:[C4H4N2O4S2]+H+;236.96245:[C5H4N2O5S2]+H+

> <Score>
0.34166117409421365

> <XlogP3>
0.0

> <InChI>
InChI=1S/C5H6N2O6S2/c1-5(15(12,13)7-4-9)2-14(10,11)6-3-8/h2,4H,1H3,(H,7,9)

> <FragmenterScore_Values>
1326.0;360.0;973.0

> <MaximumTreeDepth>
2

> <MonoisotopicMass>
253.966728

> <CompoundName>
N-(2-isocyanatosulfonyl-1-methyl-vinyl)sulfonylformamide

> <Identifier>
56630629

> <SimScore>
0.5311

> <MolecularFormula>
C5H6N2O6S2

> <SMILES>
CC(=CS(=O)(=O)N=C=O)S(=O)(=O)NC=O

> <InChIKey2>
UHFFFAOYSA

> <InChIKey1>
TXEAWPQITYZXLK

> <FragmenterScore>
409.08007348405835

> <NumberPeaksUsed>
22

$$$$

  CDK     0427161240

 14 14  0  0  0  0  0  0  0  0999 V2000
    0.0000    0.0000    0.0000 C   0  0  0  0  0  0  0  0  0  0  0  0
    0.0000    0.0000    0.0000 C   0  0  0  0  0  0  0  0  0  0  0  0
    0.0000    0.0000    0.0000 C   0  0  0  0  0  0  0  0  0  0  0  0
    0.0000    0.0000    0.0000 C   0  0  0  0  0  0  0  0  0  0  0  0
    0.0000    0.0000    0.0000 C   0  0  0  0  0  0  0  0  0  0  0  0
    0.0000    0.0000    0.0000 C   0  0  0  0  0  0  0  0  0  0  0  0
    0.0000    0.0000    0.0000 C   0  0  0  0  0  0  0  0  0  0  0  0
    0.0000    0.0000    0.0000 C   0  0  0  0  0  0  0  0  0  0  0  0
    0.0000    0.0000    0.0000 C   0  0  0  0  0  0  0  0  0  0  0  0
    0.0000    0.0000    0.0000 Cl  0  0  0  0  0  0  0  0  0  0  0  0
    0.0000    0.0000    0.0000 Cl  0  0  0  0  0  0  0  0  0  0  0  0
    0.0000    0.0000    0.0000 Cl  0  0  0  0  0  0  0  0  0  0  0  0
    0.0000    0.0000    0.0000 O   0  0  0  0  0  0  0  0  0  0  0  0
    0.0000    0.0000    0.0000 O   0  0  0  0  0  0  0  0  0  0  0  0
  4  1  1  0  0  0  0 
  5  4  1  0  0  0  0 
  6  4  2  0  0  0  0 
  7  5  1  0  0  0  0 
  8  2  1  0  0  0  0 
  8  3  1  0  0  0  0 
  8  6  1  0  0  0  0 
  9  7  1  0  0  0  0 
  9  8  1  0  0  0  0 
 10  6  1  0  0  0  0 
 11  9  1  0  0  0  0 
 12  9  1  0  0  0  0 
 13  5  2  0  0  0  0 
 14  7  2  0  0  0  0 
M  END
> <NumberPeaksExplained>
5

> <PeaksExplained>
106.94476_274.0;163.00682_782.0;196.96778_720.0;208.9678_999.0;236.96245_999.0

> <FragmentMolecularFormulas>
106.94476:[C3H3Cl2-2H]+;163.00682:[C7H9Cl2]+;196.96778:[C7H9Cl3-H]+;208.9678:[C8H9Cl3-H]+;236.96245:[C9H9Cl3O-H]+

> <Score>
0.33886818905226906

> <XlogP3>
2.9

> <InChI>
InChI=1S/C9H9Cl3O2/c1-4-5(13)7(14)9(11,12)8(2,3)6(4)10/h1-3H3

> <FragmenterScore_Values>
1244.0;796.0;843.0;1539.0;1034.0

> <MaximumTreeDepth>
2

> <MonoisotopicMass>
253.966813

> <CompoundName>
4,6,6-trichloro-3,5,5-trimethyl-cyclohex-3-ene-1,2-dione

> <Identifier>
13776952

> <SimScore>
0.5993

> <MolecularFormula>
C9H9Cl3O2

> <SMILES>
CC1=C(C(C(C(=O)C1=O)(Cl)Cl)(C)C)Cl

> <InChIKey2>
UHFFFAOYSA

> <InChIKey1>
FHTSPYGOSMULFP

> <FragmenterScore>
405.7359576967506

> <NumberPeaksUsed>
22

$$$$

  CDK     0427161240

 16 17  0  0  0  0  0  0  0  0999 V2000
    0.0000    0.0000    0.0000 C   0  0  0  0  0  0  0  0  0  0  0  0
    0.0000    0.0000    0.0000 C   0  0  0  0  0  0  0  0  0  0  0  0
    0.0000    0.0000    0.0000 C   0  0  0  0  0  0  0  0  0  0  0  0
    0.0000    0.0000    0.0000 C   0  0  0  0  0  0  0  0  0  0  0  0
    0.0000    0.0000    0.0000 C   0  0  0  0  0  0  0  0  0  0  0  0
    0.0000    0.0000    0.0000 C   0  0  0  0  0  0  0  0  0  0  0  0
    0.0000    0.0000    0.0000 C   0  0  0  0  0  0  0  0  0  0  0  0
    0.0000    0.0000    0.0000 C   0  0  0  0  0  0  0  0  0  0  0  0
    0.0000    0.0000    0.0000 C   0  0  0  0  0  0  0  0  0  0  0  0
    0.0000    0.0000    0.0000 C   0  0  0  0  0  0  0  0  0  0  0  0
    0.0000    0.0000    0.0000 Cl  0  0  0  0  0  0  0  0  0  0  0  0
    0.0000    0.0000    0.0000 Cl  0  0  0  0  0  0  0  0  0  0  0  0
    0.0000    0.0000    0.0000 N   0  0  0  0  0  0  0  0  0  0  0  0
    0.0000    0.0000    0.0000 N   0  0  0  0  0  0  0  0  0  0  0  0
    0.0000    0.0000    0.0000 O   0  0  0  0  0  0  0  0  0  0  0  0
    0.0000    0.0000    0.0000 O   0  0  0  0  0  0  0  0  0  0  0  0
  2  1  2  0  0  0  0 
  5  3  1  0  0  0  0 
  5  4  1  0  0  0  0 
  6  3  2  0  0  0  0 
  7  4  2  0  0  0  0 
  8  1  1  0  0  0  0 
  8  5  2  0  0  0  0 
  9  2  1  0  0  0  0 
 10  6  1  0  0  0  0 
 10  7  1  0  0  0  0 
 11  6  1  0  0  0  0 
 12  7  1  0  0  0  0 
 13  8  1  0  0  0  0 
 14  9  1  0  0  0  0 
 14 13  2  0  0  0  0 
 15  9  2  0  0  0  0 
 16 10  2  0  0  0  0 
M  END
> <NumberPeaksExplained>
6

> <PeaksExplained>
106.94476_274.0;163.00682_782.0;178.97725_391.0;196.96778_720.0;208.9678_999.0;236.96245_999.0

> <FragmentMolecularFormulas>
106.94476:[C3Cl2]+H+;163.00682:[C8H4ClN2]+;178.97725:[C8H3ClNO2-H]+;196.96778:[C8H3Cl2N2]+;208.9678:[C9H4Cl2N2-H]+;236.96245:[C10H4Cl2N2O-H]+

> <Score>
0.33796824939254966

> <XlogP3>
2.8

> <InChI>
InChI=1S/C10H4Cl2N2O2/c11-6-3-5(4-7(12)10(6)16)8-1-2-9(15)14-13-8/h1-4H

> <FragmenterScore_Values>
1510.0;1967.0;1660.0;843.0;1496.0;1703.0

> <MaximumTreeDepth>
2

> <MonoisotopicMass>
253.964983

> <CompoundName>
6-(3,5-dichloro-4-oxo-cyclohexa-2,5-dien-1-ylidene)pyridazin-3-one

> <Identifier>
73177836

> <SimScore>
0.6134

> <MolecularFormula>
C10H4Cl2N2O2

> <SMILES>
C1=CC(=O)N=NC1=C2C=C(C(=O)C(=C2)Cl)Cl

> <InChIKey2>
UHFFFAOYSA

> <InChIKey1>
HDYGUCZKQCSKQC

> <FragmenterScore>
404.65843584164

> <NumberPeaksUsed>
22

$$$$

  CDK     0427161240

 15 15  0  0  0  0  0  0  0  0999 V2000
    0.0000    0.0000    0.0000 C   0  0  0  0  0  0  0  0  0  0  0  0
    0.0000    0.0000    0.0000 C   0  0  0  0  0  0  0  0  0  0  0  0
    0.0000    0.0000    0.0000 C   0  0  0  0  0  0  0  0  0  0  0  0
    0.0000    0.0000    0.0000 C   0  0  0  0  0  0  0  0  0  0  0  0
    0.0000    0.0000    0.0000 C   0  0  0  0  0  0  0  0  0  0  0  0
    0.0000    0.0000    0.0000 C   0  0  0  0  0  0  0  0  0  0  0  0
    0.0000    0.0000    0.0000 O   0  0  0  0  0  0  0  0  0  0  0  0
    0.0000    0.0000    0.0000 O   0  0  0  0  0  0  0  0  0  0  0  0
    0.0000    0.0000    0.0000 O   0  0  0  0  0  0  0  0  0  0  0  0
    0.0000    0.0000    0.0000 O   0  0  0  0  0  0  0  0  0  0  0  0
    0.0000    0.0000    0.0000 O   0  0  0  0  0  0  0  0  0  0  0  0
    0.0000    0.0000    0.0000 O   0  0  0  0  0  0  0  0  0  0  0  0
    0.0000    0.0000    0.0000 O   0  0  0  0  0  0  0  0  0  0  0  0
    0.0000    0.0000    0.0000 P   0  0  0  0  0  0  0  0  0  0  0  0
    0.0000    0.0000    0.0000 S   0  0  0  0  0  0  0  0  0  0  0  0
  3  1  1  0  0  0  0 
  4  2  2  0  0  0  0 
  5  1  2  0  0  0  0 
  5  2  1  0  0  0  0 
  6  3  2  0  0  0  0 
  6  4  1  0  0  0  0 
 13  5  1  0  0  0  0 
 14  7  1  0  0  0  0 
 14  8  1  0  0  0  0 
 14  9  2  0  0  0  0 
 14 13  1  0  0  0  0 
 15  6  1  0  0  0  0 
 15 10  1  0  0  0  0 
 15 11  2  0  0  0  0 
 15 12  2  0  0  0  0 
M  END
> <NumberPeaksExplained>
6

> <PeaksExplained>
143.98846_478.0;144.99625_352.0;146.0041_999.0;163.00682_782.0;172.99055_17.0;236.96245_999.0

> <FragmentMolecularFormulas>
143.98846:[C5H5O3S-H]+;144.99625:[C5H5O3S]+;146.0041:[C5H5O3S]+H+;163.00682:[C5H4O4S+2H]+H+;172.99055:[C6H5O4S]+;236.96245:[C6H5O6PS]+H+

> <Score>
0.3364444997692838

> <XlogP3>
-1.0

> <InChI>
InChI=1S/C6H7O7PS/c7-14(8,9)13-5-1-3-6(4-2-5)15(10,11)12/h1-4H,(H2,7,8,9)(H,10,11,12)

> <FragmenterScore_Values>
335.0;1324.0;1224.0;1224.0;1759.0;335.0

> <MaximumTreeDepth>
2

> <MonoisotopicMass>
253.96501

> <CompoundName>
4-phosphonooxybenzenesulfonic acid

> <Identifier>
87263655

> <SimScore>
0.5763

> <MolecularFormula>
C6H7O7PS

> <SMILES>
C1=CC(=CC=C1OP(=O)(O)O)S(=O)(=O)O

> <InChIKey2>
UHFFFAOYSA

> <InChIKey1>
VNDQGUMGQQDJDG

> <FragmenterScore>
402.83400961144446

> <NumberPeaksUsed>
22

$$$$

  CDK     0427161240

 15 15  0  0  0  0  0  0  0  0999 V2000
    0.0000    0.0000    0.0000 C   0  0  0  0  0  0  0  0  0  0  0  0
    0.0000    0.0000    0.0000 C   0  0  0  0  0  0  0  0  0  0  0  0
    0.0000    0.0000    0.0000 C   0  0  0  0  0  0  0  0  0  0  0  0
    0.0000    0.0000    0.0000 C   0  0  0  0  0  0  0  0  0  0  0  0
    0.0000    0.0000    0.0000 C   0  0  0  0  0  0  0  0  0  0  0  0
    0.0000    0.0000    0.0000 C   0  0  0  0  0  0  0  0  0  0  0  0
    0.0000    0.0000    0.0000 O   0  0  0  0  0  0  0  0  0  0  0  0
    0.0000    0.0000    0.0000 O   0  0  0  0  0  0  0  0  0  0  0  0
    0.0000    0.0000    0.0000 O   0  0  0  0  0  0  0  0  0  0  0  0
    0.0000    0.0000    0.0000 O   0  0  0  0  0  0  0  0  0  0  0  0
    0.0000    0.0000    0.0000 O   0  0  0  0  0  0  0  0  0  0  0  0
    0.0000    0.0000    0.0000 O   0  0  0  0  0  0  0  0  0  0  0  0
    0.0000    0.0000    0.0000 O   0  0  0  0  0  0  0  0  0  0  0  0
    0.0000    0.0000    0.0000 P   0  0  0  0  0  0  0  0  0  0  0  0
    0.0000    0.0000    0.0000 S   0  0  0  0  0  0  0  0  0  0  0  0
  2  1  2  0  0  0  0 
  3  1  1  0  0  0  0 
  4  2  1  0  0  0  0 
  5  3  2  0  0  0  0 
  6  4  2  0  0  0  0 
  6  5  1  0  0  0  0 
 13  5  1  0  0  0  0 
 14  7  1  0  0  0  0 
 14  8  1  0  0  0  0 
 14  9  2  0  0  0  0 
 14 13  1  0  0  0  0 
 15  6  1  0  0  0  0 
 15 10  1  0  0  0  0 
 15 11  2  0  0  0  0 
 15 12  2  0  0  0  0 
M  END
> <NumberPeaksExplained>
6

> <PeaksExplained>
143.98846_478.0;144.99625_352.0;146.0041_999.0;163.00682_782.0;172.99055_17.0;236.96245_999.0

> <FragmentMolecularFormulas>
143.98846:[C5H5O3S-H]+;144.99625:[C5H5O3S]+;146.0041:[C5H5O3S]+H+;163.00682:[C5H4O4S+2H]+H+;172.99055:[C6H5O4S]+;236.96245:[C6H5O6PS]+H+

> <Score>
0.3364444997692838

> <XlogP3>
-1.0

> <InChI>
InChI=1S/C6H7O7PS/c7-14(8,9)13-5-3-1-2-4-6(5)15(10,11)12/h1-4H,(H2,7,8,9)(H,10,11,12)

> <FragmenterScore_Values>
335.0;1324.0;1224.0;1224.0;1759.0;335.0

> <MaximumTreeDepth>
2

> <MonoisotopicMass>
253.96501

> <CompoundName>
2-phosphonooxybenzenesulfonic acid

> <Identifier>
22253854

> <SimScore>
0.5763

> <MolecularFormula>
C6H7O7PS

> <SMILES>
C1=CC=C(C(=C1)OP(=O)(O)O)S(=O)(=O)O

> <InChIKey2>
UHFFFAOYSA

> <InChIKey1>
IYXKXPQZEBWDRG

> <FragmenterScore>
402.83400961144446

> <NumberPeaksUsed>
22

$$$$

  CDK     0427161240

 16 17  0  0  0  0  0  0  0  0999 V2000
    0.0000    0.0000    0.0000 C   0  0  0  0  0  0  0  0  0  0  0  0
    0.0000    0.0000    0.0000 C   0  0  0  0  0  0  0  0  0  0  0  0
    0.0000    0.0000    0.0000 C   0  0  0  0  0  0  0  0  0  0  0  0
    0.0000    0.0000    0.0000 C   0  0  0  0  0  0  0  0  0  0  0  0
    0.0000    0.0000    0.0000 C   0  0  0  0  0  0  0  0  0  0  0  0
    0.0000    0.0000    0.0000 C   0  0  0  0  0  0  0  0  0  0  0  0
    0.0000    0.0000    0.0000 C   0  0  0  0  0  0  0  0  0  0  0  0
    0.0000    0.0000    0.0000 C   0  0  0  0  0  0  0  0  0  0  0  0
    0.0000    0.0000    0.0000 C   0  0  0  0  0  0  0  0  0  0  0  0
    0.0000    0.0000    0.0000 C   0  0  0  0  0  0  0  0  0  0  0  0
    0.0000    0.0000    0.0000 Cl  0  0  0  0  0  0  0  0  0  0  0  0
    0.0000    0.0000    0.0000 Cl  0  0  0  0  0  0  0  0  0  0  0  0
    0.0000    0.0000    0.0000 N   0  0  0  0  0  0  0  0  0  0  0  0
    0.0000    0.0000    0.0000 N   0  0  0  0  0  0  0  0  0  0  0  0
    0.0000    0.0000    0.0000 O   0  0  0  0  0  0  0  0  0  0  0  0
    0.0000    0.0000    0.0000 O   0  0  0  0  0  0  0  0  0  0  0  0
  2  1  2  0  0  0  0 
  5  1  1  0  0  0  0 
  5  3  2  0  0  0  0 
  6  3  1  0  0  0  0 
  7  4  2  0  0  0  0 
  8  2  1  0  0  0  0 
  8  6  1  0  0  0  0 
  9  4  1  0  0  0  0 
 10  6  2  0  0  0  0 
 10  7  1  0  0  0  0 
 11  5  1  0  0  0  0 
 12  7  1  0  0  0  0 
 13  9  1  0  0  0  0 
 14 10  1  0  0  0  0 
 14 13  2  0  0  0  0 
 15  8  2  0  0  0  0 
 16  9  2  0  0  0  0 
M  END
> <NumberPeaksExplained>
8

> <PeaksExplained>
115.98965_95.0;124.99015_146.0;125.99793_207.0;172.99055_17.0;178.97725_391.0;196.96778_720.0;208.9678_999.0;236.96245_999.0

> <FragmentMolecularFormulas>
115.98965:[C4HClNO+H]+H+;124.99015:[C5HClN2]+H+;125.99793:[C5HClN2+H]+H+;172.99055:[C8H4Cl2+2H]+H+;178.97725:[C8H3ClNO2-H]+;196.96778:[C8H4Cl2N2-H]+;208.9678:[C9H4Cl2N2-H]+;236.96245:[C10H4Cl2N2O-H]+

> <Score>
0.3258442658347798

> <XlogP3>
2.3

> <InChI>
InChI=1S/C10H4Cl2N2O2/c11-5-1-2-8(15)6(3-5)10-7(12)4-9(16)13-14-10/h1-4H

> <FragmenterScore_Values>
1510.0;1449.0;1426.0;843.0;1496.0;1439.0;1539.0;1549.0

> <MaximumTreeDepth>
2

> <MonoisotopicMass>
253.964983

> <CompoundName>
5-chloro-6-(3-chloro-6-oxo-cyclohexa-2,4-dien-1-ylidene)pyridazin-3-one

> <Identifier>
76140215

> <SimScore>
0.5545

> <MolecularFormula>
C10H4Cl2N2O2

> <SMILES>
C1=CC(=O)C(=C2C(=CC(=O)N=N2)Cl)C=C1Cl

> <InChIKey2>
UHFFFAOYSA

> <InChIKey1>
LVOWQCITCFOFRK

> <FragmenterScore>
390.14206564569747

> <NumberPeaksUsed>
22

$$$$

  CDK     0427161240

 14 14  0  0  0  0  0  0  0  0999 V2000
    0.0000    0.0000    0.0000 C   0  0  0  0  0  0  0  0  0  0  0  0
    0.0000    0.0000    0.0000 C   0  0  0  0  0  0  0  0  0  0  0  0
    0.0000    0.0000    0.0000 C   0  0  0  0  0  0  0  0  0  0  0  0
    0.0000    0.0000    0.0000 C   0  0  0  0  0  0  0  0  0  0  0  0
    0.0000    0.0000    0.0000 C   0  0  0  0  0  0  0  0  0  0  0  0
    0.0000    0.0000    0.0000 C   0  0  0  0  0  0  0  0  0  0  0  0
    0.0000    0.0000    0.0000 C   0  0  0  0  0  0  0  0  0  0  0  0
    0.0000    0.0000    0.0000 C   0  0  0  0  0  0  0  0  0  0  0  0
    0.0000    0.0000    0.0000 C   0  0  0  0  0  0  0  0  0  0  0  0
    0.0000    0.0000    0.0000 Cl  0  0  0  0  0  0  0  0  0  0  0  0
    0.0000    0.0000    0.0000 Cl  0  0  0  0  0  0  0  0  0  0  0  0
    0.0000    0.0000    0.0000 Cl  0  0  0  0  0  0  0  0  0  0  0  0
    0.0000    0.0000    0.0000 O   0  0  0  0  0  0  0  0  0  0  0  0
    0.0000    0.0000    0.0000 O   0  0  0  0  0  0  0  0  0  0  0  0
  3  2  2  0  0  0  0 
  5  1  1  0  0  0  0 
  5  2  1  0  0  0  0 
  6  3  1  0  0  0  0 
  6  4  2  0  0  0  0 
  7  4  1  0  0  0  0 
  7  5  2  0  0  0  0 
  8  6  1  0  0  0  0 
  9  8  1  0  0  0  0 
 10  9  1  0  0  0  0 
 11  9  1  0  0  0  0 
 12  9  1  0  0  0  0 
 13  7  1  0  0  0  0 
 14  8  1  0  0  0  0 
M  END
> <NumberPeaksExplained>
3

> <PeaksExplained>
196.96778_720.0;208.9678_999.0;236.96245_999.0

> <FragmentMolecularFormulas>
196.96778:[C7H5Cl3+2H]+H+;208.9678:[C8H6Cl3+H]+H+;236.96245:[C9H7Cl3O]+H+

> <Score>
0.3126020274825223

> <XlogP3>
3.0

> <InChI>
InChI=1S/C9H9Cl3O2/c1-5-2-3-6(4-7(5)13)8(14)9(10,11)12/h2-4,8,13-14H,1H3

> <FragmenterScore_Values>
1784.0;360.0;1684.0

> <MaximumTreeDepth>
2

> <MonoisotopicMass>
253.966813

> <CompoundName>
2-methyl-5-(2,2,2-trichloro-1-hydroxy-ethyl)phenol

> <Identifier>
69998828

> <SimScore>
0.5311

> <MolecularFormula>
C9H9Cl3O2

> <SMILES>
CC1=C(C=C(C=C1)C(C(Cl)(Cl)Cl)O)O

> <InChIKey2>
UHFFFAOYSA

> <InChIKey1>
QWSAJMVJOAEGDS

> <FragmenterScore>
374.28677903727197

> <NumberPeaksUsed>
22

$$$$

  CDK     0427161240

 14 14  0  0  0  0  0  0  0  0999 V2000
    0.0000    0.0000    0.0000 C   0  0  0  0  0  0  0  0  0  0  0  0
    0.0000    0.0000    0.0000 C   0  0  0  0  0  0  0  0  0  0  0  0
    0.0000    0.0000    0.0000 C   0  0  0  0  0  0  0  0  0  0  0  0
    0.0000    0.0000    0.0000 C   0  0  0  0  0  0  0  0  0  0  0  0
    0.0000    0.0000    0.0000 C   0  0  0  0  0  0  0  0  0  0  0  0
    0.0000    0.0000    0.0000 C   0  0  0  0  0  0  0  0  0  0  0  0
    0.0000    0.0000    0.0000 C   0  0  0  0  0  0  0  0  0  0  0  0
    0.0000    0.0000    0.0000 C   0  0  0  0  0  0  0  0  0  0  0  0
    0.0000    0.0000    0.0000 C   0  0  0  0  0  0  0  0  0  0  0  0
    0.0000    0.0000    0.0000 Cl  0  0  0  0  0  0  0  0  0  0  0  0
    0.0000    0.0000    0.0000 Cl  0  0  0  0  0  0  0  0  0  0  0  0
    0.0000    0.0000    0.0000 Cl  0  0  0  0  0  0  0  0  0  0  0  0
    0.0000    0.0000    0.0000 O   0  0  0  0  0  0  0  0  0  0  0  0
    0.0000    0.0000    0.0000 O   0  0  0  0  0  0  0  0  0  0  0  0
  3  2  2  0  0  0  0 
  5  1  1  0  0  0  0 
  5  2  1  0  0  0  0 
  5  4  2  0  0  0  0 
  6  3  1  0  0  0  0 
  7  4  1  0  0  0  0 
  7  6  2  0  0  0  0 
  8  6  1  0  0  0  0 
  9  8  1  0  0  0  0 
 10  9  1  0  0  0  0 
 11  9  1  0  0  0  0 
 12  9  1  0  0  0  0 
 13  7  1  0  0  0  0 
 14  8  1  0  0  0  0 
M  END
> <NumberPeaksExplained>
3

> <PeaksExplained>
196.96778_720.0;208.9678_999.0;236.96245_999.0

> <FragmentMolecularFormulas>
196.96778:[C7H5Cl3+2H]+H+;208.9678:[C8H6Cl3+H]+H+;236.96245:[C9H7Cl3O]+H+

> <Score>
0.3126020274825223

> <XlogP3>
3.5

> <InChI>
InChI=1S/C9H9Cl3O2/c1-5-2-3-6(7(13)4-5)8(14)9(10,11)12/h2-4,8,13-14H,1H3

> <FragmenterScore_Values>
1784.0;360.0;1684.0

> <MaximumTreeDepth>
2

> <MonoisotopicMass>
253.966813

> <CompoundName>
5-methyl-2-(2,2,2-trichloro-1-hydroxy-ethyl)phenol

> <Identifier>
69994244

> <SimScore>
0.5311

> <MolecularFormula>
C9H9Cl3O2

> <SMILES>
CC1=CC(=C(C=C1)C(C(Cl)(Cl)Cl)O)O

> <InChIKey2>
UHFFFAOYSA

> <InChIKey1>
MDUXJAJNIXCIKP

> <FragmenterScore>
374.28677903727197

> <NumberPeaksUsed>
22

$$$$

  CDK     0427161240

 14 14  0  0  0  0  0  0  0  0999 V2000
    0.0000    0.0000    0.0000 C   0  0  0  0  0  0  0  0  0  0  0  0
    0.0000    0.0000    0.0000 C   0  0  0  0  0  0  0  0  0  0  0  0
    0.0000    0.0000    0.0000 C   0  0  0  0  0  0  0  0  0  0  0  0
    0.0000    0.0000    0.0000 C   0  0  0  0  0  0  0  0  0  0  0  0
    0.0000    0.0000    0.0000 C   0  0  0  0  0  0  0  0  0  0  0  0
    0.0000    0.0000    0.0000 C   0  0  0  0  0  0  0  0  0  0  0  0
    0.0000    0.0000    0.0000 C   0  0  0  0  0  0  0  0  0  0  0  0
    0.0000    0.0000    0.0000 C   0  0  0  0  0  0  0  0  0  0  0  0
    0.0000    0.0000    0.0000 C   0  0  0  0  0  0  0  0  0  0  0  0
    0.0000    0.0000    0.0000 Cl  0  0  0  0  0  0  0  0  0  0  0  0
    0.0000    0.0000    0.0000 Cl  0  0  0  0  0  0  0  0  0  0  0  0
    0.0000    0.0000    0.0000 Cl  0  0  0  0  0  0  0  0  0  0  0  0
    0.0000    0.0000    0.0000 O   0  0  0  0  0  0  0  0  0  0  0  0
    0.0000    0.0000    0.0000 O   0  0  0  0  0  0  0  0  0  0  0  0
  3  2  2  0  0  0  0 
  5  1  1  0  0  0  0 
  5  2  1  0  0  0  0 
  5  4  2  0  0  0  0 
  6  4  1  0  0  0  0 
  7  3  1  0  0  0  0 
  7  6  2  0  0  0  0 
  8  6  1  0  0  0  0 
  9  8  1  0  0  0  0 
 10  9  1  0  0  0  0 
 11  9  1  0  0  0  0 
 12  9  1  0  0  0  0 
 13  7  1  0  0  0  0 
 14  8  1  0  0  0  0 
M  END
> <NumberPeaksExplained>
3

> <PeaksExplained>
196.96778_720.0;208.9678_999.0;236.96245_999.0

> <FragmentMolecularFormulas>
196.96778:[C7H5Cl3+2H]+H+;208.9678:[C8H6Cl3+H]+H+;236.96245:[C9H7Cl3O]+H+

> <Score>
0.3126020274825223

> <XlogP3>
3.5

> <InChI>
InChI=1S/C9H9Cl3O2/c1-5-2-3-7(13)6(4-5)8(14)9(10,11)12/h2-4,8,13-14H,1H3

> <FragmenterScore_Values>
1784.0;360.0;1684.0

> <MaximumTreeDepth>
2

> <MonoisotopicMass>
253.966813

> <CompoundName>
4-methyl-2-(2,2,2-trichloro-1-hydroxy-ethyl)phenol

> <Identifier>
12516845

> <SimScore>
0.5311

> <MolecularFormula>
C9H9Cl3O2

> <SMILES>
CC1=CC(=C(C=C1)O)C(C(Cl)(Cl)Cl)O

> <InChIKey2>
UHFFFAOYSA

> <InChIKey1>
WBBPUUQJAJUBRN

> <FragmenterScore>
374.28677903727197

> <NumberPeaksUsed>
22

$$$$

  CDK     0427161240

 14 14  0  0  0  0  0  0  0  0999 V2000
    0.0000    0.0000    0.0000 C   0  0  0  0  0  0  0  0  0  0  0  0
    0.0000    0.0000    0.0000 C   0  0  0  0  0  0  0  0  0  0  0  0
    0.0000    0.0000    0.0000 C   0  0  0  0  0  0  0  0  0  0  0  0
    0.0000    0.0000    0.0000 C   0  0  0  0  0  0  0  0  0  0  0  0
    0.0000    0.0000    0.0000 C   0  0  0  0  0  0  0  0  0  0  0  0
    0.0000    0.0000    0.0000 C   0  0  0  0  0  0  0  0  0  0  0  0
    0.0000    0.0000    0.0000 C   0  0  0  0  0  0  0  0  0  0  0  0
    0.0000    0.0000    0.0000 C   0  0  0  0  0  0  0  0  0  0  0  0
    0.0000    0.0000    0.0000 C   0  0  0  0  0  0  0  0  0  0  0  0
    0.0000    0.0000    0.0000 Cl  0  0  0  0  0  0  0  0  0  0  0  0
    0.0000    0.0000    0.0000 Cl  0  0  0  0  0  0  0  0  0  0  0  0
    0.0000    0.0000    0.0000 Cl  0  0  0  0  0  0  0  0  0  0  0  0
    0.0000    0.0000    0.0000 O   0  0  0  0  0  0  0  0  0  0  0  0
    0.0000    0.0000    0.0000 O   0  0  0  0  0  0  0  0  0  0  0  0
  2  1  1  0  0  0  0 
  3  2  1  0  0  0  0 
  4  3  1  0  0  0  0 
  5  4  2  0  0  0  0 
  6  4  1  0  0  0  0 
  8  5  1  0  0  0  0 
  8  7  2  0  0  0  0 
  9  6  2  0  0  0  0 
  9  7  1  0  0  0  0 
 10  5  1  0  0  0  0 
 11  6  1  0  0  0  0 
 12  7  1  0  0  0  0 
 13  8  1  0  0  0  0 
 14  9  1  0  0  0  0 
M  END
> <NumberPeaksExplained>
4

> <PeaksExplained>
106.94476_274.0;163.00682_782.0;208.9678_999.0;236.96245_999.0

> <FragmentMolecularFormulas>
106.94476:[C3Cl2]+H+;163.00682:[C7H6Cl2+2H]+H+;208.9678:[C8H6Cl3+H]+H+;236.96245:[C9H7Cl3O]+H+

> <Score>
0.30928659153052507

> <XlogP3>
4.4

> <InChI>
InChI=1S/C9H9Cl3O2/c1-2-3-4-5(10)8(13)7(12)9(14)6(4)11/h13-14H,2-3H2,1H3

> <FragmenterScore_Values>
1572.0;360.0;1684.0;1784.0

> <MaximumTreeDepth>
2

> <MonoisotopicMass>
253.966813

> <CompoundName>
2,4,6-trichloro-5-propyl-benzene-1,3-diol

> <Identifier>
71410051

> <SimScore>
0.5486

> <MolecularFormula>
C9H9Cl3O2

> <SMILES>
CCCC1=C(C(=C(C(=C1Cl)O)Cl)O)Cl

> <InChIKey2>
UHFFFAOYSA

> <InChIKey1>
ZHOFUWJJODRRHZ

> <FragmenterScore>
370.31711878403894

> <NumberPeaksUsed>
22

$$$$

  CDK     0427161240

 14 14  0  0  0  0  0  0  0  0999 V2000
    0.0000    0.0000    0.0000 C   0  0  0  0  0  0  0  0  0  0  0  0
    0.0000    0.0000    0.0000 C   0  0  0  0  0  0  0  0  0  0  0  0
    0.0000    0.0000    0.0000 C   0  0  0  0  0  0  0  0  0  0  0  0
    0.0000    0.0000    0.0000 C   0  0  0  0  0  0  0  0  0  0  0  0
    0.0000    0.0000    0.0000 C   0  0  0  0  0  0  0  0  0  0  0  0
    0.0000    0.0000    0.0000 C   0  0  0  0  0  0  0  0  0  0  0  0
    0.0000    0.0000    0.0000 C   0  0  0  0  0  0  0  0  0  0  0  0
    0.0000    0.0000    0.0000 C   0  0  0  0  0  0  0  0  0  0  0  0
    0.0000    0.0000    0.0000 Cl  0  0  0  0  0  0  0  0  0  0  0  0
    0.0000    0.0000    0.0000 Cl  0  0  0  0  0  0  0  0  0  0  0  0
    0.0000    0.0000    0.0000 O   0  0  0  0  0  0  0  0  0  0  0  0
    0.0000    0.0000    0.0000 O   0  0  0  0  0  0  0  0  0  0  0  0
    0.0000    0.0000    0.0000 O   0  0  0  0  0  0  0  0  0  0  0  0
    0.0000    0.0000    0.0000 P   0  0  0  0  0  0  0  0  0  0  0  0
  4  3  2  0  0  0  0 
  6  3  1  0  0  0  0 
  6  5  2  0  0  0  0 
  7  4  1  0  0  0  0 
  8  5  1  0  0  0  0 
  8  7  2  0  0  0  0 
 12  1  1  0  0  0  0 
 12  7  1  0  0  0  0 
 13  2  1  0  0  0  0 
 13  8  1  0  0  0  0 
 14  6  1  0  0  0  0 
 14  9  1  0  0  0  0 
 14 10  1  0  0  0  0 
 14 11  2  0  0  0  0 
M  END
> <NumberPeaksExplained>
4

> <PeaksExplained>
106.94476_274.0;196.96778_720.0;208.9678_999.0;236.96245_999.0

> <FragmentMolecularFormulas>
106.94476:[C2HClOP]+;196.96778:[C6H6Cl2OP+H]+H+;208.9678:[C7H6Cl2OP+H]+H+;236.96245:[C8H9Cl2O2P-H]+

> <Score>
0.29659144224771333

> <XlogP3>
2.7

> <InChI>
InChI=1S/C8H9Cl2O3P/c1-12-7-4-3-6(14(9,10)11)5-8(7)13-2/h3-5H,1-2H3

> <FragmenterScore_Values>
1550.0;1868.0;644.0;1004.0

> <MaximumTreeDepth>
2

> <MonoisotopicMass>
253.966636

> <CompoundName>
4-dichlorophosphoryl-1,2-dimethoxy-benzene

> <Identifier>
20548445

> <SimScore>
0.539

> <MolecularFormula>
C8H9Cl2O3P

> <SMILES>
COC1=C(C=C(C=C1)P(=O)(Cl)Cl)OC

> <InChIKey2>
UHFFFAOYSA

> <InChIKey1>
MIIRIPXWMSQRGB

> <FragmenterScore>
355.11687656959396

> <NumberPeaksUsed>
22

$$$$

  CDK     0427161240

 14 14  0  0  0  0  0  0  0  0999 V2000
    0.0000    0.0000    0.0000 C   0  0  0  0  0  0  0  0  0  0  0  0
    0.0000    0.0000    0.0000 C   0  0  0  0  0  0  0  0  0  0  0  0
    0.0000    0.0000    0.0000 C   0  0  0  0  0  0  0  0  0  0  0  0
    0.0000    0.0000    0.0000 C   0  0  0  0  0  0  0  0  0  0  0  0
    0.0000    0.0000    0.0000 C   0  0  0  0  0  0  0  0  0  0  0  0
    0.0000    0.0000    0.0000 C   0  0  0  0  0  0  0  0  0  0  0  0
    0.0000    0.0000    0.0000 C   0  0  0  0  0  0  0  0  0  0  0  0
    0.0000    0.0000    0.0000 C   0  0  0  0  0  0  0  0  0  0  0  0
    0.0000    0.0000    0.0000 Cl  0  0  0  0  0  0  0  0  0  0  0  0
    0.0000    0.0000    0.0000 Cl  0  0  0  0  0  0  0  0  0  0  0  0
    0.0000    0.0000    0.0000 O   0  0  0  0  0  0  0  0  0  0  0  0
    0.0000    0.0000    0.0000 O   0  0  0  0  0  0  0  0  0  0  0  0
    0.0000    0.0000    0.0000 O   0  0  0  0  0  0  0  0  0  0  0  0
    0.0000    0.0000    0.0000 P   0  0  0  0  0  0  0  0  0  0  0  0
  4  3  2  0  0  0  0 
  6  3  1  0  0  0  0 
  6  5  2  0  0  0  0 
  7  5  1  0  0  0  0 
  8  4  1  0  0  0  0 
  8  7  2  0  0  0  0 
 12  1  1  0  0  0  0 
 12  6  1  0  0  0  0 
 13  2  1  0  0  0  0 
 13  7  1  0  0  0  0 
 14  8  1  0  0  0  0 
 14  9  1  0  0  0  0 
 14 10  1  0  0  0  0 
 14 11  2  0  0  0  0 
M  END
> <NumberPeaksExplained>
4

> <PeaksExplained>
106.94476_274.0;196.96778_720.0;208.9678_999.0;236.96245_999.0

> <FragmentMolecularFormulas>
106.94476:[C2HClOP]+;196.96778:[C6H6Cl2OP+H]+H+;208.9678:[C7H6Cl2OP+H]+H+;236.96245:[C8H9Cl2O2P-H]+

> <Score>
0.29659144224771333

> <XlogP3>
2.5

> <InChI>
InChI=1S/C8H9Cl2O3P/c1-12-6-3-4-8(14(9,10)11)7(5-6)13-2/h3-5H,1-2H3

> <FragmenterScore_Values>
1550.0;1868.0;644.0;1004.0

> <MaximumTreeDepth>
2

> <MonoisotopicMass>
253.966636

> <CompoundName>
1-dichlorophosphoryl-2,4-dimethoxy-benzene

> <Identifier>
20548444

> <SimScore>
0.539

> <MolecularFormula>
C8H9Cl2O3P

> <SMILES>
COC1=CC(=C(C=C1)P(=O)(Cl)Cl)OC

> <InChIKey2>
UHFFFAOYSA

> <InChIKey1>
QDKVGXHTMUANCH

> <FragmenterScore>
355.11687656959396

> <NumberPeaksUsed>
22

$$$$

  CDK     0427161240

 14 14  0  0  0  0  0  0  0  0999 V2000
    0.0000    0.0000    0.0000 C   0  0  0  0  0  0  0  0  0  0  0  0
    0.0000    0.0000    0.0000 C   0  0  0  0  0  0  0  0  0  0  0  0
    0.0000    0.0000    0.0000 C   0  0  0  0  0  0  0  0  0  0  0  0
    0.0000    0.0000    0.0000 C   0  0  0  0  0  0  0  0  0  0  0  0
    0.0000    0.0000    0.0000 C   0  0  0  0  0  0  0  0  0  0  0  0
    0.0000    0.0000    0.0000 C   0  0  0  0  0  0  0  0  0  0  0  0
    0.0000    0.0000    0.0000 C   0  0  0  0  0  0  0  0  0  0  0  0
    0.0000    0.0000    0.0000 C   0  0  0  0  0  0  0  0  0  0  0  0
    0.0000    0.0000    0.0000 Cl  0  0  0  0  0  0  0  0  0  0  0  0
    0.0000    0.0000    0.0000 Cl  0  0  0  0  0  0  0  0  0  0  0  0
    0.0000    0.0000    0.0000 O   0  0  0  0  0  0  0  0  0  0  0  0
    0.0000    0.0000    0.0000 O   0  0  0  0  0  0  0  0  0  0  0  0
    0.0000    0.0000    0.0000 O   0  0  0  0  0  0  0  0  0  0  0  0
    0.0000    0.0000    0.0000 P   0  0  0  0  0  0  0  0  0  0  0  0
  6  3  2  0  0  0  0 
  6  4  1  0  0  0  0 
  7  3  1  0  0  0  0 
  7  5  2  0  0  0  0 
  8  4  2  0  0  0  0 
  8  5  1  0  0  0  0 
 12  1  1  0  0  0  0 
 12  6  1  0  0  0  0 
 13  2  1  0  0  0  0 
 13  7  1  0  0  0  0 
 14  8  1  0  0  0  0 
 14  9  1  0  0  0  0 
 14 10  1  0  0  0  0 
 14 11  2  0  0  0  0 
M  END
> <NumberPeaksExplained>
4

> <PeaksExplained>
106.94476_274.0;196.96778_720.0;208.9678_999.0;236.96245_999.0

> <FragmentMolecularFormulas>
106.94476:[C2HClOP]+;196.96778:[C6H6Cl2OP+H]+H+;208.9678:[C7H6Cl2OP+H]+H+;236.96245:[C8H9Cl2O2P-H]+

> <Score>
0.29659144224771333

> <XlogP3>
2.5

> <InChI>
InChI=1S/C8H9Cl2O3P/c1-12-6-3-7(13-2)5-8(4-6)14(9,10)11/h3-5H,1-2H3

> <FragmenterScore_Values>
1550.0;1868.0;644.0;1004.0

> <MaximumTreeDepth>
2

> <MonoisotopicMass>
253.966636

> <CompoundName>
1-dichlorophosphoryl-3,5-dimethoxy-benzene

> <Identifier>
2784256

> <SimScore>
0.539

> <MolecularFormula>
C8H9Cl2O3P

> <SMILES>
COC1=CC(=CC(=C1)P(=O)(Cl)Cl)OC

> <InChIKey2>
UHFFFAOYSA

> <InChIKey1>
KYIKIGUQBBZUAF

> <FragmenterScore>
355.11687656959396

> <NumberPeaksUsed>
22

$$$$

  CDK     0427161240

 14 16  0  0  0  0  0  0  0  0999 V2000
    0.0000    0.0000    0.0000 C   0  0  0  0  0  0  0  0  0  0  0  0
    0.0000    0.0000    0.0000 C   0  0  0  0  0  0  0  0  0  0  0  0
    0.0000    0.0000    0.0000 C   0  0  0  0  0  0  0  0  0  0  0  0
    0.0000    0.0000    0.0000 C   0  0  0  0  0  0  0  0  0  0  0  0
    0.0000    0.0000    0.0000 C   0  0  0  0  0  0  0  0  0  0  0  0
    0.0000    0.0000    0.0000 C   0  0  0  0  0  0  0  0  0  0  0  0
    0.0000    0.0000    0.0000 C   0  0  0  0  0  0  0  0  0  0  0  0
    0.0000    0.0000    0.0000 C   0  0  0  0  0  0  0  0  0  0  0  0
    0.0000    0.0000    0.0000 C   0  0  0  0  0  0  0  0  0  0  0  0
    0.0000    0.0000    0.0000 Cl  0  0  0  0  0  0  0  0  0  0  0  0
    0.0000    0.0000    0.0000 Cl  0  0  0  0  0  0  0  0  0  0  0  0
    0.0000    0.0000    0.0000 Cl  0  0  0  0  0  0  0  0  0  0  0  0
    0.0000    0.0000    0.0000 O   0  0  0  0  0  0  0  0  0  0  0  0
    0.0000    0.0000    0.0000 O   0  0  0  0  0  0  0  0  0  0  0  0
  3  1  1  0  0  0  0 
  3  2  1  0  0  0  0 
  4  1  1  0  0  0  0 
  5  2  1  0  0  0  0 
  5  4  1  0  0  0  0 
  6  3  1  0  0  0  0 
  7  4  1  0  0  0  0 
  7  6  1  0  0  0  0 
  8  5  1  0  0  0  0 
  9  6  1  0  0  0  0 
 10  9  1  0  0  0  0 
 11  9  1  0  0  0  0 
 12  9  1  0  0  0  0 
 13  8  2  0  0  0  0 
 14  7  1  0  0  0  0 
 14  8  1  0  0  0  0 
M  END
> <NumberPeaksExplained>
4

> <PeaksExplained>
172.99055_17.0;196.96778_720.0;208.9678_999.0;236.96245_999.0

> <FragmentMolecularFormulas>
172.99055:[C8H9Cl2-2H]+;196.96778:[C7H8Cl3]+;208.9678:[C8H9Cl3-H]+;236.96245:[C9H9Cl3O-H]+

> <Score>
0.29378167942850575

> <XlogP3>
2.8

> <InChI>
InChI=1S/C9H9Cl3O2/c10-9(11,12)6-3-1-4-5(2-3)8(13)14-7(4)6/h3-7H,1-2H2

> <FragmenterScore_Values>
1392.0;820.0;808.0;1246.0

> <MaximumTreeDepth>
2

> <MonoisotopicMass>
253.966813

> <CompoundName>
NA

> <Identifier>
263772

> <SimScore>
0.5312

> <MolecularFormula>
C9H9Cl3O2

> <SMILES>
C1C2CC3C1C(C2C(Cl)(Cl)Cl)OC3=O

> <InChIKey2>
UHFFFAOYSA

> <InChIKey1>
QRNBDJHZHREHID

> <FragmenterScore>
351.7526723002576

> <NumberPeaksUsed>
22

$$$$

  CDK     0427161240

 14 15  0  0  0  0  0  0  0  0999 V2000
    0.0000    0.0000    0.0000 C   0  0  0  0  0  0  0  0  0  0  0  0
    0.0000    0.0000    0.0000 C   0  0  0  0  0  0  0  0  0  0  0  0
    0.0000    0.0000    0.0000 C   0  0  0  0  0  0  0  0  0  0  0  0
    0.0000    0.0000    0.0000 C   0  0  0  0  0  0  0  0  0  0  0  0
    0.0000    0.0000    0.0000 C   0  0  0  0  0  0  0  0  0  0  0  0
    0.0000    0.0000    0.0000 C   0  0  0  0  0  0  0  0  0  0  0  0
    0.0000    0.0000    0.0000 C   0  0  0  0  0  0  0  0  0  0  0  0
    0.0000    0.0000    0.0000 C   0  0  0  0  0  0  0  0  0  0  0  0
    0.0000    0.0000    0.0000 C   0  0  0  0  0  0  0  0  0  0  0  0
    0.0000    0.0000    0.0000 Cl  0  0  0  0  0  0  0  0  0  0  0  0
    0.0000    0.0000    0.0000 Cl  0  0  0  0  0  0  0  0  0  0  0  0
    0.0000    0.0000    0.0000 Cl  0  0  0  0  0  0  0  0  0  0  0  0
    0.0000    0.0000    0.0000 O   0  0  0  0  0  0  0  0  0  0  0  0
    0.0000    0.0000    0.0000 O   0  0  0  0  0  0  0  0  0  0  0  0
  3  2  2  0  0  0  0 
  4  2  1  0  0  0  0 
  5  1  1  0  0  0  0 
  6  3  1  0  0  0  0 
  8  4  1  0  0  0  0 
  8  7  1  0  0  0  0 
  9  6  1  0  0  0  0 
  9  7  1  0  0  0  0 
  9  8  1  0  0  0  0 
 10  7  1  0  0  0  0 
 11  8  1  0  0  0  0 
 12  9  1  0  0  0  0 
 13  5  2  0  0  0  0 
 14  5  1  0  0  0  0 
 14  6  1  0  0  0  0 
M  END
> <NumberPeaksExplained>
4

> <PeaksExplained>
106.94476_274.0;163.00682_782.0;196.96778_720.0;236.96245_999.0

> <FragmentMolecularFormulas>
106.94476:[C3HCl2]+;163.00682:[C7H6Cl2+2H]+H+;196.96778:[C7H6Cl3+H]+H+;236.96245:[C9H9Cl3O-H]+

> <Score>
0.2902155482872909

> <XlogP3>
2.2

> <InChI>
InChI=1S/C9H9Cl3O2/c1-5(13)14-6-3-2-4-8(11)7(10)9(6,8)12/h2-3,6-7H,4H2,1H3

> <FragmenterScore_Values>
1034.0;460.0;843.0;898.0

> <MaximumTreeDepth>
2

> <MonoisotopicMass>
253.966813

> <CompoundName>
(1,6,7-trichloro-5-bicyclo[4.1.0]hept-3-enyl) acetate

> <Identifier>
14939378

> <SimScore>
0.4971

> <MolecularFormula>
C9H9Cl3O2

> <SMILES>
CC(=O)OC1C=CCC2(C1(C2Cl)Cl)Cl

> <InChIKey2>
UHFFFAOYSA

> <InChIKey1>
OXPVLZINJPRYNU

> <FragmenterScore>
347.48284798331696

> <NumberPeaksUsed>
22

$$$$

  CDK     0427161240

 14 15  0  0  0  0  0  0  0  0999 V2000
    0.0000    0.0000    0.0000 C   0  0  0  0  0  0  0  0  0  0  0  0
    0.0000    0.0000    0.0000 C   0  0  0  0  0  0  0  0  0  0  0  0
    0.0000    0.0000    0.0000 C   0  0  0  0  0  0  0  0  0  0  0  0
    0.0000    0.0000    0.0000 C   0  0  0  0  0  0  0  0  0  0  0  0
    0.0000    0.0000    0.0000 C   0  0  0  0  0  0  0  0  0  0  0  0
    0.0000    0.0000    0.0000 C   0  0  0  0  0  0  0  0  0  0  0  0
    0.0000    0.0000    0.0000 C   0  0  0  0  0  0  0  0  0  0  0  0
    0.0000    0.0000    0.0000 C   0  0  0  0  0  0  0  0  0  0  0  0
    0.0000    0.0000    0.0000 C   0  0  0  0  0  0  0  0  0  0  0  0
    0.0000    0.0000    0.0000 Cl  0  0  0  0  0  0  0  0  0  0  0  0
    0.0000    0.0000    0.0000 Cl  0  0  0  0  0  0  0  0  0  0  0  0
    0.0000    0.0000    0.0000 Cl  0  0  0  0  0  0  0  0  0  0  0  0
    0.0000    0.0000    0.0000 O   0  0  0  0  0  0  0  0  0  0  0  0
    0.0000    0.0000    0.0000 O   0  0  0  0  0  0  0  0  0  0  0  0
  3  2  2  0  0  0  0 
  4  2  1  0  0  0  0 
  5  1  1  0  0  0  0 
  6  3  1  0  0  0  0 
  8  4  1  0  0  0  0 
  8  7  1  0  0  0  0 
  9  6  1  0  0  0  0 
  9  7  1  0  0  0  0 
  9  8  1  0  0  0  0 
 10  7  1  0  0  0  0 
 11  8  1  0  0  0  0 
 12  9  1  0  0  0  0 
 13  5  2  0  0  0  0 
 14  5  1  0  0  0  0 
 14  6  1  0  0  0  0 
M  END
> <NumberPeaksExplained>
4

> <PeaksExplained>
106.94476_274.0;163.00682_782.0;196.96778_720.0;236.96245_999.0

> <FragmentMolecularFormulas>
106.94476:[C3HCl2]+;163.00682:[C7H6Cl2+2H]+H+;196.96778:[C7H6Cl3+H]+H+;236.96245:[C9H9Cl3O-H]+

> <Score>
0.2902155482872909

> <XlogP3>
2.2

> <InChI>
InChI=1S/C9H9Cl3O2/c1-5(13)14-6-3-2-4-8(11)7(10)9(6,8)12/h2-3,6-7H,4H2,1H3/t6-,7-,8-,9+/m0/s1

> <FragmenterScore_Values>
1034.0;460.0;843.0;898.0

> <MaximumTreeDepth>
2

> <MonoisotopicMass>
253.966813

> <CompoundName>
[(1S,5S,6R,7S)-1,6,7-trichloro-5-bicyclo[4.1.0]hept-3-enyl] acetate

> <Identifier>
11118658

> <SimScore>
0.4971

> <MolecularFormula>
C9H9Cl3O2

> <SMILES>
CC(=O)O[C@H]1C=CC[C@]2([C@@]1([C@H]2Cl)Cl)Cl

> <InChIKey2>
XSPKLOCKSA

> <InChIKey1>
OXPVLZINJPRYNU

> <FragmenterScore>
347.48284798331696

> <NumberPeaksUsed>
22

$$$$

  CDK     0427161240

 14 15  0  0  0  0  0  0  0  0999 V2000
    0.0000    0.0000    0.0000 C   0  0  0  0  0  0  0  0  0  0  0  0
    0.0000    0.0000    0.0000 C   0  0  0  0  0  0  0  0  0  0  0  0
    0.0000    0.0000    0.0000 C   0  0  0  0  0  0  0  0  0  0  0  0
    0.0000    0.0000    0.0000 C   0  0  0  0  0  0  0  0  0  0  0  0
    0.0000    0.0000    0.0000 C   0  0  0  0  0  0  0  0  0  0  0  0
    0.0000    0.0000    0.0000 C   0  0  0  0  0  0  0  0  0  0  0  0
    0.0000    0.0000    0.0000 C   0  0  0  0  0  0  0  0  0  0  0  0
    0.0000    0.0000    0.0000 C   0  0  0  0  0  0  0  0  0  0  0  0
    0.0000    0.0000    0.0000 C   0  0  0  0  0  0  0  0  0  0  0  0
    0.0000    0.0000    0.0000 Cl  0  0  0  0  0  0  0  0  0  0  0  0
    0.0000    0.0000    0.0000 Cl  0  0  0  0  0  0  0  0  0  0  0  0
    0.0000    0.0000    0.0000 Cl  0  0  0  0  0  0  0  0  0  0  0  0
    0.0000    0.0000    0.0000 O   0  0  0  0  0  0  0  0  0  0  0  0
    0.0000    0.0000    0.0000 O   0  0  0  0  0  0  0  0  0  0  0  0
  3  2  2  0  0  0  0 
  4  2  1  0  0  0  0 
  5  1  1  0  0  0  0 
  6  3  1  0  0  0  0 
  8  4  1  0  0  0  0 
  8  7  1  0  0  0  0 
  9  6  1  0  0  0  0 
  9  7  1  0  0  0  0 
  9  8  1  0  0  0  0 
 10  7  1  0  0  0  0 
 11  8  1  0  0  0  0 
 12  9  1  0  0  0  0 
 13  5  2  0  0  0  0 
 14  5  1  0  0  0  0 
 14  6  1  0  0  0  0 
M  END
> <NumberPeaksExplained>
4

> <PeaksExplained>
106.94476_274.0;163.00682_782.0;196.96778_720.0;236.96245_999.0

> <FragmentMolecularFormulas>
106.94476:[C3HCl2]+;163.00682:[C7H6Cl2+2H]+H+;196.96778:[C7H6Cl3+H]+H+;236.96245:[C9H9Cl3O-H]+

> <Score>
0.2902155482872909

> <XlogP3>
2.2

> <InChI>
InChI=1S/C9H9Cl3O2/c1-5(13)14-6-3-2-4-8(11)7(10)9(6,8)12/h2-3,6-7H,4H2,1H3/t6-,7+,8-,9+/m0/s1

> <FragmenterScore_Values>
1034.0;460.0;843.0;898.0

> <MaximumTreeDepth>
2

> <MonoisotopicMass>
253.966813

> <CompoundName>
[(1S,5S,6R,7R)-1,6,7-trichloro-5-bicyclo[4.1.0]hept-3-enyl] acetate

> <Identifier>
11010564

> <SimScore>
0.4971

> <MolecularFormula>
C9H9Cl3O2

> <SMILES>
CC(=O)O[C@H]1C=CC[C@]2([C@@]1([C@@H]2Cl)Cl)Cl

> <InChIKey2>
UYXSQOIJSA

> <InChIKey1>
OXPVLZINJPRYNU

> <FragmenterScore>
347.48284798331696

> <NumberPeaksUsed>
22

$$$$

  CDK     0427161240

 15 14  0  0  0  0  0  0  0  0999 V2000
    0.0000    0.0000    0.0000 C   0  0  0  0  0  0  0  0  0  0  0  0
    0.0000    0.0000    0.0000 C   0  0  0  0  0  0  0  0  0  0  0  0
    0.0000    0.0000    0.0000 C   0  0  0  0  0  0  0  0  0  0  0  0
    0.0000    0.0000    0.0000 C   0  0  0  0  0  0  0  0  0  0  0  0
    0.0000    0.0000    0.0000 C   0  0  0  0  0  0  0  0  0  0  0  0
    0.0000    0.0000    0.0000 N   0  0  0  0  0  0  0  0  0  0  0  0
    0.0000    0.0000    0.0000 N   0  0  0  0  0  0  0  0  0  0  0  0
    0.0000    0.0000    0.0000 O   0  0  0  0  0  0  0  0  0  0  0  0
    0.0000    0.0000    0.0000 O   0  0  0  0  0  0  0  0  0  0  0  0
    0.0000    0.0000    0.0000 O   0  0  0  0  0  0  0  0  0  0  0  0
    0.0000    0.0000    0.0000 O   0  0  0  0  0  0  0  0  0  0  0  0
    0.0000    0.0000    0.0000 O   0  0  0  0  0  0  0  0  0  0  0  0
    0.0000    0.0000    0.0000 O   0  0  0  0  0  0  0  0  0  0  0  0
    0.0000    0.0000    0.0000 S   0  0  0  0  0  0  0  0  0  0  0  0
    0.0000    0.0000    0.0000 S   0  0  0  0  0  0  0  0  0  0  0  0
  5  1  1  0  0  0  0 
  5  2  1  0  0  0  0 
  6  3  2  0  0  0  0 
  7  4  2  0  0  0  0 
  8  3  2  0  0  0  0 
  9  4  2  0  0  0  0 
 14  2  1  0  0  0  0 
 14  6  1  0  0  0  0 
 14 10  2  0  0  0  0 
 14 11  2  0  0  0  0 
 15  5  1  0  0  0  0 
 15  7  1  0  0  0  0 
 15 12  2  0  0  0  0 
 15 13  2  0  0  0  0 
M  END
> <NumberPeaksExplained>
3

> <PeaksExplained>
196.96778_720.0;208.9678_999.0;236.96245_999.0

> <FragmentMolecularFormulas>
196.96778:[C3H6N2O4S2-H]+;208.9678:[C4H6N2O4S2-H]+;236.96245:[C5H6N2O5S2-H]+

> <Score>
0.28907696564530544

> <XlogP3>
1.7

> <InChI>
InChI=1S/C5H6N2O6S2/c1-5(15(12,13)7-4-9)2-14(10,11)6-3-8/h5H,2H2,1H3

> <FragmenterScore_Values>
1326.0;622.0;1235.0

> <MaximumTreeDepth>
2

> <MonoisotopicMass>
253.966728

> <CompoundName>
N1,N2-bis(oxomethylene)propane-1,2-disulfonamide

> <Identifier>
17977825

> <SimScore>
0.5311

> <MolecularFormula>
C5H6N2O6S2

> <SMILES>
CC(CS(=O)(=O)N=C=O)S(=O)(=O)N=C=O

> <InChIKey2>
UHFFFAOYSA

> <InChIKey1>
DFHSPTQPSCSSOK

> <FragmenterScore>
346.11959249464195

> <NumberPeaksUsed>
22

$$$$

  CDK     0427161240

 14 14  0  0  0  0  0  0  0  0999 V2000
    0.0000    0.0000    0.0000 C   0  0  0  0  0  0  0  0  0  0  0  0
    0.0000    0.0000    0.0000 C   0  0  0  0  0  0  0  0  0  0  0  0
    0.0000    0.0000    0.0000 C   0  0  0  0  0  0  0  0  0  0  0  0
    0.0000    0.0000    0.0000 C   0  0  0  0  0  0  0  0  0  0  0  0
    0.0000    0.0000    0.0000 C   0  0  0  0  0  0  0  0  0  0  0  0
    0.0000    0.0000    0.0000 C   0  0  0  0  0  0  0  0  0  0  0  0
    0.0000    0.0000    0.0000 C   0  0  0  0  0  0  0  0  0  0  0  0
    0.0000    0.0000    0.0000 C   0  0  0  0  0  0  0  0  0  0  0  0
    0.0000    0.0000    0.0000 C   0  0  0  0  0  0  0  0  0  0  0  0
    0.0000    0.0000    0.0000 Cl  0  0  0  0  0  0  0  0  0  0  0  0
    0.0000    0.0000    0.0000 Cl  0  0  0  0  0  0  0  0  0  0  0  0
    0.0000    0.0000    0.0000 Cl  0  0  0  0  0  0  0  0  0  0  0  0
    0.0000    0.0000    0.0000 O   0  0  0  0  0  0  0  0  0  0  0  0
    0.0000    0.0000    0.0000 O   0  0  0  0  0  0  0  0  0  0  0  0
  4  3  2  0  0  0  0 
  6  3  1  0  0  0  0 
  7  5  2  0  0  0  0 
  7  6  1  0  0  0  0 
  8  1  1  0  0  0  0 
  8  4  1  0  0  0  0 
  8  5  1  0  0  0  0 
  9  8  1  0  0  0  0 
 10  9  1  0  0  0  0 
 11  9  1  0  0  0  0 
 12  9  1  0  0  0  0 
 13  6  2  0  0  0  0 
 14  2  1  0  0  0  0 
 14  7  1  0  0  0  0 
M  END
> <NumberPeaksExplained>
4

> <PeaksExplained>
106.94476_274.0;196.96778_720.0;208.9678_999.0;236.96245_999.0

> <FragmentMolecularFormulas>
106.94476:[C3H3Cl2-2H]+;196.96778:[C7H5Cl3+2H]+H+;208.9678:[C8H5Cl3+2H]+H+;236.96245:[C9H9Cl3O-H]+

> <Score>
0.28053345903345506

> <XlogP3>
3.5

> <InChI>
InChI=1S/C9H9Cl3O2/c1-8(9(10,11)12)4-3-6(13)7(5-8)14-2/h3-5H,1-2H3

> <FragmenterScore_Values>
1234.0;1256.0;843.0;1303.0

> <MaximumTreeDepth>
2

> <MonoisotopicMass>
253.966813

> <CompoundName>
2-methoxy-4-methyl-4-(trichloromethyl)cyclohexa-2,5-dien-1-one

> <Identifier>
20257293

> <SimScore>
0.539

> <MolecularFormula>
C9H9Cl3O2

> <SMILES>
CC1(C=CC(=O)C(=C1)OC)C(Cl)(Cl)Cl

> <InChIKey2>
UHFFFAOYSA

> <InChIKey1>
ONONXJLQUOUEFC

> <FragmenterScore>
335.89022323179574

> <NumberPeaksUsed>
22

$$$$

  CDK     0427161240

 13 15  0  0  0  0  0  0  0  0999 V2000
    0.0000    0.0000    0.0000 C   0  0  0  0  0  0  0  0  0  0  0  0
    0.0000    0.0000    0.0000 C   0  0  0  0  0  0  0  0  0  0  0  0
    0.0000    0.0000    0.0000 C   0  0  0  0  0  0  0  0  0  0  0  0
    0.0000    0.0000    0.0000 C   0  0  0  0  0  0  0  0  0  0  0  0
    0.0000    0.0000    0.0000 C   0  0  0  0  0  0  0  0  0  0  0  0
    0.0000    0.0000    0.0000 C   0  0  0  0  0  0  0  0  0  0  0  0
    0.0000    0.0000    0.0000 C   0  0  0  0  0  0  0  0  0  0  0  0
    0.0000    0.0000    0.0000 O   0  0  0  0  0  0  0  0  0  0  0  0
    0.0000    0.0000    0.0000 O   0  0  0  0  0  0  0  0  0  0  0  0
    0.0000    0.0000    0.0000 P   0  0  0  0  0  0  0  0  0  0  0  0
    0.0000    0.0000    0.0000 S   0  0  0  0  0  0  0  0  0  0  0  0
    0.0000    0.0000    0.0000 S   0  0  0  0  0  0  0  0  0  0  0  0
    0.0000    0.0000    0.0000 S   0  0  0  0  0  0  0  0  0  0  0  0
  5  3  1  0  0  0  0 
  5  4  1  0  0  0  0 
  6  1  1  0  0  0  0 
  7  2  1  0  0  0  0 
  8  1  1  0  0  0  0 
  8  6  1  0  0  0  0 
  9  2  1  0  0  0  0 
  9  7  1  0  0  0  0 
 10  6  1  0  0  0  0 
 10  7  1  0  0  0  0 
 11 10  2  0  0  0  0 
 12  3  1  0  0  0  0 
 12  5  1  0  0  0  0 
 13  4  1  0  0  0  0 
 13 10  1  0  0  0  0 
M  END
> <NumberPeaksExplained>
3

> <PeaksExplained>
196.96778_720.0;208.9678_999.0;236.96245_999.0

> <FragmentMolecularFormulas>
196.96778:[C5H8PS3+H]+H+;208.9678:[C6H9PS3]+H+;236.96245:[C7H11OPS3-H]+

> <Score>
0.2717685495032839

> <XlogP3>
1.6

> <InChI>
InChI=1S/C7H11O2PS3/c11-10(6-1-8-6,7-2-9-7)13-4-5-3-12-5/h5-7H,1-4H2

> <FragmenterScore_Values>
1084.0;820.0;1428.0

> <MaximumTreeDepth>
2

> <MonoisotopicMass>
253.965879

> <CompoundName>
bis(oxiran-2-yl)-(thiiran-2-ylmethylsulfanyl)-thioxo-$l^{5}-phosphane

> <Identifier>
89034569

> <SimScore>
0.5311

> <MolecularFormula>
C7H11O2PS3

> <SMILES>
C1C(O1)P(=S)(C2CO2)SCC3CS3

> <InChIKey2>
UHFFFAOYSA

> <InChIKey1>
BYOWVTOOFDSHEJ

> <FragmenterScore>
325.39576232563843

> <NumberPeaksUsed>
22

$$$$

  CDK     0427161240

 16 17  0  0  0  0  0  0  0  0999 V2000
    0.0000    0.0000    0.0000 C   0  0  0  0  0  0  0  0  0  0  0  0
    0.0000    0.0000    0.0000 C   0  0  0  0  0  0  0  0  0  0  0  0
    0.0000    0.0000    0.0000 C   0  0  0  0  0  0  0  0  0  0  0  0
    0.0000    0.0000    0.0000 C   0  0  0  0  0  0  0  0  0  0  0  0
    0.0000    0.0000    0.0000 C   0  0  0  0  0  0  0  0  0  0  0  0
    0.0000    0.0000    0.0000 C   0  0  0  0  0  0  0  0  0  0  0  0
    0.0000    0.0000    0.0000 C   0  0  0  0  0  0  0  0  0  0  0  0
    0.0000    0.0000    0.0000 C   0  0  0  0  0  0  0  0  0  0  0  0
    0.0000    0.0000    0.0000 C   0  0  0  0  0  0  0  0  0  0  0  0
    0.0000    0.0000    0.0000 C   0  0  0  0  0  0  0  0  0  0  0  0
    0.0000    0.0000    0.0000 Cl  0  0  0  0  0  0  0  0  0  0  0  0
    0.0000    0.0000    0.0000 Cl  0  0  0  0  0  0  0  0  0  0  0  0
    0.0000    0.0000    0.0000 N   0  0  0  0  0  0  0  0  0  0  0  0
    0.0000    0.0000    0.0000 N   0  0  0  0  0  0  0  0  0  0  0  0
    0.0000    0.0000    0.0000 O   0  0  0  0  0  0  0  0  0  0  0  0
    0.0000    0.0000    0.0000 O   0  0  0  0  0  0  0  0  0  0  0  0
  2  1  1  0  0  0  0 
  5  3  2  0  0  0  0 
  6  4  2  0  0  0  0 
  6  5  1  0  0  0  0 
  7  3  1  0  0  0  0 
  8  4  1  0  0  0  0 
  8  7  2  0  0  0  0 
  9  5  1  0  0  0  0 
 10  6  1  0  0  0  0 
 11  7  1  0  0  0  0 
 12  8  1  0  0  0  0 
 13  1  3  0  0  0  0 
 14  2  1  0  0  0  0 
 14  9  1  0  0  0  0 
 14 10  1  0  0  0  0 
 15  9  2  0  0  0  0 
 16 10  2  0  0  0  0 
M  END
> <NumberPeaksExplained>
4

> <PeaksExplained>
106.94476_274.0;178.97725_391.0;208.9678_999.0;236.96245_999.0

> <FragmentMolecularFormulas>
106.94476:[C3HCl2]+;178.97725:[C8H2ClNO2]+;208.9678:[C9H4Cl2N2-H]+;236.96245:[C10H4Cl2N2O-H]+

> <Score>
0.2632406435367329

> <XlogP3>
1.9

> <InChI>
InChI=1S/C10H4Cl2N2O2/c11-7-3-5-6(4-8(7)12)10(16)14(2-1-13)9(5)15/h3-4H,2H2

> <FragmenterScore_Values>
643.0;1224.0;843.0;1496.0

> <MaximumTreeDepth>
2

> <MonoisotopicMass>
253.964983

> <CompoundName>
2-(5,6-dichloro-1,3-dioxo-isoindolin-2-yl)acetonitrile

> <Identifier>
2654468

> <SimScore>
0.4995

> <MolecularFormula>
C10H4Cl2N2O2

> <SMILES>
C1=C2C(=CC(=C1Cl)Cl)C(=O)N(C2=O)CC#N

> <InChIKey2>
UHFFFAOYSA

> <InChIKey1>
ZXKXMJDJUHXCJG

> <FragmenterScore>
315.18507213319697

> <NumberPeaksUsed>
22

$$$$

  CDK     0427161240

 10  9  0  0  0  0  0  0  0  0999 V2000
    0.0000    0.0000    0.0000 C   0  0  0  0  0  0  0  0  0  0  0  0
    0.0000    0.0000    0.0000 C   0  0  0  0  0  0  0  0  0  0  0  0
    0.0000    0.0000    0.0000 C   0  0  0  0  0  0  0  0  0  0  0  0
    0.0000    0.0000    0.0000 C   0  0  0  0  0  0  0  0  0  0  0  0
    0.0000    0.0000    0.0000 I   0  0  0  0  0  0  0  0  0  0  0  0
    0.0000    0.0000    0.0000 N   0  0  0  0  0  0  0  0  0  0  0  0
    0.0000    0.0000    0.0000 N   0  0  0  0  0  0  0  0  0  0  0  0
    0.0000    0.0000    0.0000 N   0  0  0  0  0  0  0  0  0  0  0  0
    0.0000    0.0000    0.0000 N   0  0  0  0  0  0  0  0  0  0  0  0
    0.0000    0.0000    0.0000 O   0  0  0  0  0  0  0  0  0  0  0  0
  2  1  1  0  0  0  0 
  4  3  1  0  0  0  0 
  5  3  1  0  0  0  0 
  7  1  1  0  0  0  0 
  7  4  2  0  0  0  0 
  8  2  1  0  0  0  0 
  9  6  2  0  0  0  0 
  9  8  2  0  0  0  0 
 10  4  1  0  0  0  0 
M  CHG  1   6  -1
M  CHG  1   9   1
M  END
> <NumberPeaksExplained>
2

> <PeaksExplained>
196.96778_720.0;236.96245_999.0

> <FragmentMolecularFormulas>
196.96778:[C4H5IN+2H]+H+;236.96245:[C4H5IN4]+H+

> <Score>
0.26136458594239576

> <XlogP3>
1.1

> <InChI>
InChI=1S/C4H7IN4O/c5-3-4(10)7-1-2-8-9-6/h1-3H2,(H,7,10)

> <FragmenterScore_Values>
865.0;360.0

> <MaximumTreeDepth>
2

> <MonoisotopicMass>
253.966459

> <CompoundName>
N-(2-azidoethyl)-2-iodo-acetamide

> <Identifier>
44155767

> <SimScore>
0.4125

> <MolecularFormula>
C4H7IN4O

> <SMILES>
C(CN=[N+]=[N-])NC(=O)CI

> <InChIKey2>
UHFFFAOYSA

> <InChIKey1>
FFTXNQZTRXDSIX

> <FragmenterScore>
312.9388181343738

> <NumberPeaksUsed>
22

$$$$

  CDK     0427161240

 14 14  0  0  0  0  0  0  0  0999 V2000
    0.0000    0.0000    0.0000 C   0  0  0  0  0  0  0  0  0  0  0  0
    0.0000    0.0000    0.0000 C   0  0  0  0  0  0  0  0  0  0  0  0
    0.0000    0.0000    0.0000 C   0  0  0  0  0  0  0  0  0  0  0  0
    0.0000    0.0000    0.0000 C   0  0  0  0  0  0  0  0  0  0  0  0
    0.0000    0.0000    0.0000 C   0  0  0  0  0  0  0  0  0  0  0  0
    0.0000    0.0000    0.0000 C   0  0  0  0  0  0  0  0  0  0  0  0
    0.0000    0.0000    0.0000 C   0  0  0  0  0  0  0  0  0  0  0  0
    0.0000    0.0000    0.0000 C   0  0  0  0  0  0  0  0  0  0  0  0
    0.0000    0.0000    0.0000 C   0  0  0  0  0  0  0  0  0  0  0  0
    0.0000    0.0000    0.0000 Cl  0  0  0  0  0  0  0  0  0  0  0  0
    0.0000    0.0000    0.0000 Cl  0  0  0  0  0  0  0  0  0  0  0  0
    0.0000    0.0000    0.0000 Cl  0  0  0  0  0  0  0  0  0  0  0  0
    0.0000    0.0000    0.0000 O   0  0  0  0  0  0  0  0  0  0  0  0
    0.0000    0.0000    0.0000 O   0  0  0  0  0  0  0  0  0  0  0  0
  3  2  2  0  0  0  0 
  4  2  1  0  0  0  0 
  5  1  1  0  0  0  0 
  5  3  1  0  0  0  0 
  6  4  2  0  0  0  0 
  7  5  2  0  0  0  0 
  7  6  1  0  0  0  0 
  8  6  1  0  0  0  0 
  9  8  1  0  0  0  0 
 10  9  1  0  0  0  0 
 11  9  1  0  0  0  0 
 12  9  1  0  0  0  0 
 13  7  1  0  0  0  0 
 14  8  1  0  0  0  0 
M  END
> <NumberPeaksExplained>
2

> <PeaksExplained>
208.9678_999.0;236.96245_999.0

> <FragmentMolecularFormulas>
208.9678:[C8H6Cl3+H]+H+;236.96245:[C9H7Cl3O]+H+

> <Score>
0.2605595951019919

> <XlogP3>
3.5

> <InChI>
InChI=1S/C9H9Cl3O2/c1-5-3-2-4-6(7(5)13)8(14)9(10,11)12/h2-4,8,13-14H,1H3

> <FragmenterScore_Values>
360.0;1684.0

> <MaximumTreeDepth>
2

> <MonoisotopicMass>
253.966813

> <CompoundName>
2-methyl-6-(2,2,2-trichloro-1-hydroxy-ethyl)phenol

> <Identifier>
12516843

> <SimScore>
0.4732

> <MolecularFormula>
C9H9Cl3O2

> <SMILES>
CC1=C(C(=CC=C1)C(C(Cl)(Cl)Cl)O)O

> <InChIKey2>
UHFFFAOYSA

> <InChIKey1>
ZDPLMWGNMDHHDG

> <FragmenterScore>
311.9749810433743

> <NumberPeaksUsed>
22

$$$$

  CDK     0427161240

 14 14  0  0  0  0  0  0  0  0999 V2000
    0.0000    0.0000    0.0000 C   0  0  0  0  0  0  0  0  0  0  0  0
    0.0000    0.0000    0.0000 C   0  0  0  0  0  0  0  0  0  0  0  0
    0.0000    0.0000    0.0000 C   0  0  0  0  0  0  0  0  0  0  0  0
    0.0000    0.0000    0.0000 C   0  0  0  0  0  0  0  0  0  0  0  0
    0.0000    0.0000    0.0000 C   0  0  0  0  0  0  0  0  0  0  0  0
    0.0000    0.0000    0.0000 C   0  0  0  0  0  0  0  0  0  0  0  0
    0.0000    0.0000    0.0000 C   0  0  0  0  0  0  0  0  0  0  0  0
    0.0000    0.0000    0.0000 C   0  0  0  0  0  0  0  0  0  0  0  0
    0.0000    0.0000    0.0000 Cl  0  0  0  0  0  0  0  0  0  0  0  0
    0.0000    0.0000    0.0000 Cl  0  0  0  0  0  0  0  0  0  0  0  0
    0.0000    0.0000    0.0000 O   0  0  0  0  0  0  0  0  0  0  0  0
    0.0000    0.0000    0.0000 O   0  0  0  0  0  0  0  0  0  0  0  0
    0.0000    0.0000    0.0000 O   0  0  0  0  0  0  0  0  0  0  0  0
    0.0000    0.0000    0.0000 P   0  0  0  0  0  0  0  0  0  0  0  0
  2  1  2  0  0  0  0 
  4  3  1  0  0  0  0 
  6  1  1  0  0  0  0 
  6  3  1  0  0  0  0 
  7  2  1  0  0  0  0 
  7  5  2  0  0  0  0 
  8  5  1  0  0  0  0 
  8  6  2  0  0  0  0 
  9  7  1  0  0  0  0 
 10  8  1  0  0  0  0 
 14  4  1  0  0  0  0 
 14 11  1  0  0  0  0 
 14 12  1  0  0  0  0 
 14 13  2  0  0  0  0 
M  END
> <NumberPeaksExplained>
4

> <PeaksExplained>
106.94476_274.0;163.00682_782.0;172.99055_17.0;236.96245_999.0

> <FragmentMolecularFormulas>
106.94476:[C3HCl2]+;163.00682:[C7H6Cl2+2H]+H+;172.99055:[C8H7Cl2]+;236.96245:[C8H7Cl2O2P]+H+

> <Score>
0.2567525931270512

> <XlogP3>
1.6

> <InChI>
InChI=1S/C8H9Cl2O3P/c9-7-2-1-6(8(10)5-7)3-4-14(11,12)13/h1-2,5H,3-4H2,(H2,11,12,13)

> <FragmenterScore_Values>
1224.0;335.0;1688.0;264.0

> <MaximumTreeDepth>
2

> <MonoisotopicMass>
253.966636

> <CompoundName>
2-(2,4-dichlorophenyl)ethylphosphonic acid

> <Identifier>
86084510

> <SimScore>
0.4348

> <MolecularFormula>
C8H9Cl2O3P

> <SMILES>
C1=CC(=C(C=C1Cl)Cl)CCP(=O)(O)O

> <InChIKey2>
UHFFFAOYSA

> <InChIKey1>
YHZZPKQURSMOKV

> <FragmenterScore>
307.4167556266542

> <NumberPeaksUsed>
22

$$$$

  CDK     0427161240

 14 14  0  0  0  0  0  0  0  0999 V2000
    0.0000    0.0000    0.0000 C   0  0  0  0  0  0  0  0  0  0  0  0
    0.0000    0.0000    0.0000 C   0  0  0  0  0  0  0  0  0  0  0  0
    0.0000    0.0000    0.0000 C   0  0  0  0  0  0  0  0  0  0  0  0
    0.0000    0.0000    0.0000 C   0  0  0  0  0  0  0  0  0  0  0  0
    0.0000    0.0000    0.0000 C   0  0  0  0  0  0  0  0  0  0  0  0
    0.0000    0.0000    0.0000 C   0  0  0  0  0  0  0  0  0  0  0  0
    0.0000    0.0000    0.0000 C   0  0  0  0  0  0  0  0  0  0  0  0
    0.0000    0.0000    0.0000 C   0  0  0  0  0  0  0  0  0  0  0  0
    0.0000    0.0000    0.0000 Cl  0  0  0  0  0  0  0  0  0  0  0  0
    0.0000    0.0000    0.0000 Cl  0  0  0  0  0  0  0  0  0  0  0  0
    0.0000    0.0000    0.0000 O   0  0  0  0  0  0  0  0  0  0  0  0
    0.0000    0.0000    0.0000 O   0  0  0  0  0  0  0  0  0  0  0  0
    0.0000    0.0000    0.0000 O   0  0  0  0  0  0  0  0  0  0  0  0
    0.0000    0.0000    0.0000 P   0  0  0  0  0  0  0  0  0  0  0  0
  2  1  2  0  0  0  0 
  4  3  1  0  0  0  0 
  6  1  1  0  0  0  0 
  6  3  1  0  0  0  0 
  6  5  2  0  0  0  0 
  7  2  1  0  0  0  0 
  8  5  1  0  0  0  0 
  8  7  2  0  0  0  0 
  9  7  1  0  0  0  0 
 10  8  1  0  0  0  0 
 14  4  1  0  0  0  0 
 14 11  1  0  0  0  0 
 14 12  1  0  0  0  0 
 14 13  2  0  0  0  0 
M  END
> <NumberPeaksExplained>
4

> <PeaksExplained>
106.94476_274.0;163.00682_782.0;172.99055_17.0;236.96245_999.0

> <FragmentMolecularFormulas>
106.94476:[C3HCl2]+;163.00682:[C7H6Cl2+2H]+H+;172.99055:[C8H7Cl2]+;236.96245:[C8H7Cl2O2P]+H+

> <Score>
0.2567525931270512

> <XlogP3>
1.6

> <InChI>
InChI=1S/C8H9Cl2O3P/c9-7-2-1-6(5-8(7)10)3-4-14(11,12)13/h1-2,5H,3-4H2,(H2,11,12,13)

> <FragmenterScore_Values>
1224.0;335.0;1688.0;264.0

> <MaximumTreeDepth>
2

> <MonoisotopicMass>
253.966636

> <CompoundName>
2-(3,4-dichlorophenyl)ethylphosphonic acid

> <Identifier>
86084504

> <SimScore>
0.4348

> <MolecularFormula>
C8H9Cl2O3P

> <SMILES>
C1=CC(=C(C=C1CCP(=O)(O)O)Cl)Cl

> <InChIKey2>
UHFFFAOYSA

> <InChIKey1>
MVPOURMIAVUSAH

> <FragmenterScore>
307.4167556266542

> <NumberPeaksUsed>
22

$$$$

  CDK     0427161240

 14 14  0  0  0  0  0  0  0  0999 V2000
    0.0000    0.0000    0.0000 C   0  0  0  0  0  0  0  0  0  0  0  0
    0.0000    0.0000    0.0000 C   0  0  0  0  0  0  0  0  0  0  0  0
    0.0000    0.0000    0.0000 C   0  0  0  0  0  0  0  0  0  0  0  0
    0.0000    0.0000    0.0000 C   0  0  0  0  0  0  0  0  0  0  0  0
    0.0000    0.0000    0.0000 C   0  0  0  0  0  0  0  0  0  0  0  0
    0.0000    0.0000    0.0000 C   0  0  0  0  0  0  0  0  0  0  0  0
    0.0000    0.0000    0.0000 C   0  0  0  0  0  0  0  0  0  0  0  0
    0.0000    0.0000    0.0000 C   0  0  0  0  0  0  0  0  0  0  0  0
    0.0000    0.0000    0.0000 Cl  0  0  0  0  0  0  0  0  0  0  0  0
    0.0000    0.0000    0.0000 Cl  0  0  0  0  0  0  0  0  0  0  0  0
    0.0000    0.0000    0.0000 O   0  0  0  0  0  0  0  0  0  0  0  0
    0.0000    0.0000    0.0000 O   0  0  0  0  0  0  0  0  0  0  0  0
    0.0000    0.0000    0.0000 O   0  0  0  0  0  0  0  0  0  0  0  0
    0.0000    0.0000    0.0000 P   0  0  0  0  0  0  0  0  0  0  0  0
  3  2  2  0  0  0  0 
  5  1  1  0  0  0  0 
  6  2  1  0  0  0  0 
  6  4  1  0  0  0  0 
  6  5  2  0  0  0  0 
  7  3  1  0  0  0  0 
  8  5  1  0  0  0  0 
  8  7  2  0  0  0  0 
  9  7  1  0  0  0  0 
 10  8  1  0  0  0  0 
 14  4  1  0  0  0  0 
 14 11  1  0  0  0  0 
 14 12  1  0  0  0  0 
 14 13  2  0  0  0  0 
M  END
> <NumberPeaksExplained>
4

> <PeaksExplained>
106.94476_274.0;163.00682_782.0;172.99055_17.0;236.96245_999.0

> <FragmentMolecularFormulas>
106.94476:[C3HCl2]+;163.00682:[C7H6Cl2+2H]+H+;172.99055:[C8H7Cl2]+;236.96245:[C8H7Cl2O2P]+H+

> <Score>
0.2567525931270512

> <XlogP3>
1.5

> <InChI>
InChI=1S/C8H9Cl2O3P/c1-5-6(4-14(11,12)13)2-3-7(9)8(5)10/h2-3H,4H2,1H3,(H2,11,12,13)

> <FragmenterScore_Values>
1224.0;335.0;1688.0;264.0

> <MaximumTreeDepth>
2

> <MonoisotopicMass>
253.966636

> <CompoundName>
(3,4-dichloro-2-methyl-phenyl)methylphosphonic acid

> <Identifier>
20562195

> <SimScore>
0.4348

> <MolecularFormula>
C8H9Cl2O3P

> <SMILES>
CC1=C(C=CC(=C1Cl)Cl)CP(=O)(O)O

> <InChIKey2>
UHFFFAOYSA

> <InChIKey1>
HERFJTBZJZXCLN

> <FragmenterScore>
307.4167556266542

> <NumberPeaksUsed>
22

$$$$

  CDK     0427161240

 14 14  0  0  0  0  0  0  0  0999 V2000
    0.0000    0.0000    0.0000 C   0  0  0  0  0  0  0  0  0  0  0  0
    0.0000    0.0000    0.0000 C   0  0  0  0  0  0  0  0  0  0  0  0
    0.0000    0.0000    0.0000 C   0  0  0  0  0  0  0  0  0  0  0  0
    0.0000    0.0000    0.0000 C   0  0  0  0  0  0  0  0  0  0  0  0
    0.0000    0.0000    0.0000 C   0  0  0  0  0  0  0  0  0  0  0  0
    0.0000    0.0000    0.0000 C   0  0  0  0  0  0  0  0  0  0  0  0
    0.0000    0.0000    0.0000 C   0  0  0  0  0  0  0  0  0  0  0  0
    0.0000    0.0000    0.0000 C   0  0  0  0  0  0  0  0  0  0  0  0
    0.0000    0.0000    0.0000 Cl  0  0  0  0  0  0  0  0  0  0  0  0
    0.0000    0.0000    0.0000 Cl  0  0  0  0  0  0  0  0  0  0  0  0
    0.0000    0.0000    0.0000 O   0  0  0  0  0  0  0  0  0  0  0  0
    0.0000    0.0000    0.0000 O   0  0  0  0  0  0  0  0  0  0  0  0
    0.0000    0.0000    0.0000 O   0  0  0  0  0  0  0  0  0  0  0  0
    0.0000    0.0000    0.0000 P   0  0  0  0  0  0  0  0  0  0  0  0
  2  1  2  0  0  0  0 
  3  1  1  0  0  0  0 
  4  2  1  0  0  0  0 
  5  3  2  0  0  0  0 
  7  4  2  0  0  0  0 
  7  5  1  0  0  0  0 
  8  6  1  0  0  0  0 
  8  7  1  0  0  0  0 
  9  6  1  0  0  0  0 
 10  8  1  0  0  0  0 
 14  8  1  0  0  0  0 
 14 11  1  0  0  0  0 
 14 12  1  0  0  0  0 
 14 13  2  0  0  0  0 
M  END
> <NumberPeaksExplained>
4

> <PeaksExplained>
106.94476_274.0;163.00682_782.0;172.99055_17.0;236.96245_999.0

> <FragmentMolecularFormulas>
106.94476:[C3H2Cl2-H]+;163.00682:[C7H6Cl2+2H]+H+;172.99055:[C8H7Cl2]+;236.96245:[C8H7Cl2O2P]+H+

> <Score>
0.2554372895666466

> <XlogP3>
1.0

> <InChI>
InChI=1S/C8H9Cl2O3P/c9-6-8(10,14(11,12)13)7-4-2-1-3-5-7/h1-5H,6H2,(H2,11,12,13)

> <FragmenterScore_Values>
1588.0;335.0;1688.0;264.0

> <MaximumTreeDepth>
2

> <MonoisotopicMass>
253.966636

> <CompoundName>
(1,2-dichloro-1-phenyl-ethyl)phosphonic acid

> <Identifier>
85581423

> <SimScore>
0.4348

> <MolecularFormula>
C8H9Cl2O3P

> <SMILES>
C1=CC=C(C=C1)C(CCl)(P(=O)(O)O)Cl

> <InChIKey2>
UHFFFAOYSA

> <InChIKey1>
IXQXRIMLEGCIBI

> <FragmenterScore>
305.84190744974137

> <NumberPeaksUsed>
22

$$$$

  CDK     0427161240

 14 14  0  0  0  0  0  0  0  0999 V2000
    0.0000    0.0000    0.0000 C   0  0  0  0  0  0  0  0  0  0  0  0
    0.0000    0.0000    0.0000 C   0  0  0  0  0  0  0  0  0  0  0  0
    0.0000    0.0000    0.0000 C   0  0  0  0  0  0  0  0  0  0  0  0
    0.0000    0.0000    0.0000 C   0  0  0  0  0  0  0  0  0  0  0  0
    0.0000    0.0000    0.0000 C   0  0  0  0  0  0  0  0  0  0  0  0
    0.0000    0.0000    0.0000 C   0  0  0  0  0  0  0  0  0  0  0  0
    0.0000    0.0000    0.0000 C   0  0  0  0  0  0  0  0  0  0  0  0
    0.0000    0.0000    0.0000 C   0  0  0  0  0  0  0  0  0  0  0  0
    0.0000    0.0000    0.0000 Cl  0  0  0  0  0  0  0  0  0  0  0  0
    0.0000    0.0000    0.0000 Cl  0  0  0  0  0  0  0  0  0  0  0  0
    0.0000    0.0000    0.0000 O   0  0  0  0  0  0  0  0  0  0  0  0
    0.0000    0.0000    0.0000 O   0  0  0  0  0  0  0  0  0  0  0  0
    0.0000    0.0000    0.0000 O   0  0  0  0  0  0  0  0  0  0  0  0
    0.0000    0.0000    0.0000 P   0  0  0  0  0  0  0  0  0  0  0  0
  2  1  2  0  0  0  0 
  3  1  1  0  0  0  0 
  4  2  1  0  0  0  0 
  5  3  2  0  0  0  0 
  6  4  2  0  0  0  0 
  6  5  1  0  0  0  0 
  7  6  1  0  0  0  0 
  8  7  1  0  0  0  0 
  9  7  1  0  0  0  0 
 10  8  1  0  0  0  0 
 14  8  1  0  0  0  0 
 14 11  1  0  0  0  0 
 14 12  1  0  0  0  0 
 14 13  2  0  0  0  0 
M  END
> <NumberPeaksExplained>
4

> <PeaksExplained>
106.94476_274.0;163.00682_782.0;172.99055_17.0;236.96245_999.0

> <FragmentMolecularFormulas>
106.94476:[C3H2Cl2-H]+;163.00682:[C7H6Cl2+2H]+H+;172.99055:[C8H7Cl2]+;236.96245:[C8H7Cl2O2P]+H+

> <Score>
0.2554372895666466

> <XlogP3>
1.3

> <InChI>
InChI=1S/C8H9Cl2O3P/c9-7(8(10)14(11,12)13)6-4-2-1-3-5-6/h1-5,7-8H,(H2,11,12,13)

> <FragmenterScore_Values>
1588.0;335.0;1688.0;264.0

> <MaximumTreeDepth>
2

> <MonoisotopicMass>
253.966636

> <CompoundName>
(1,2-dichloro-2-phenyl-ethyl)phosphonic acid

> <Identifier>
69908056

> <SimScore>
0.4348

> <MolecularFormula>
C8H9Cl2O3P

> <SMILES>
C1=CC=C(C=C1)C(C(P(=O)(O)O)Cl)Cl

> <InChIKey2>
UHFFFAOYSA

> <InChIKey1>
QJMGPCQLWPXZPI

> <FragmenterScore>
305.84190744974137

> <NumberPeaksUsed>
22

$$$$

  CDK     0427161240

 15 15  0  0  0  0  0  0  0  0999 V2000
    0.0000    0.0000    0.0000 C   0  0  0  0  0  0  0  0  0  0  0  0
    0.0000    0.0000    0.0000 C   0  0  0  0  0  0  0  0  0  0  0  0
    0.0000    0.0000    0.0000 C   0  0  0  0  0  0  0  0  0  0  0  0
    0.0000    0.0000    0.0000 C   0  0  0  0  0  0  0  0  0  0  0  0
    0.0000    0.0000    0.0000 C   0  0  0  0  0  0  0  0  0  0  0  0
    0.0000    0.0000    0.0000 C   0  0  0  0  0  0  0  0  0  0  0  0
    0.0000    0.0000    0.0000 C   0  0  0  0  0  0  0  0  0  0  0  0
    0.0000    0.0000    0.0000 Cl  0  0  0  0  0  0  0  0  0  0  0  0
    0.0000    0.0000    0.0000 O   0  0  0  0  0  0  0  0  0  0  0  0
    0.0000    0.0000    0.0000 O   0  0  0  0  0  0  0  0  0  0  0  0
    0.0000    0.0000    0.0000 O   0  0  0  0  0  0  0  0  0  0  0  0
    0.0000    0.0000    0.0000 O   0  0  0  0  0  0  0  0  0  0  0  0
    0.0000    0.0000    0.0000 O   0  0  0  0  0  0  0  0  0  0  0  0
    0.0000    0.0000    0.0000 O   0  0  0  0  0  0  0  0  0  0  0  0
    0.0000    0.0000    0.0000 S   0  0  0  0  0  0  0  0  0  0  0  0
  4  2  1  0  0  0  0 
  5  3  2  0  0  0  0 
  6  1  1  0  0  0  0 
  6  2  2  0  0  0  0 
  6  3  1  0  0  0  0 
  7  4  2  0  0  0  0 
  7  5  1  0  0  0  0 
  9  8  2  0  0  0  0 
 10  8  2  0  0  0  0 
 11  8  2  0  0  0  0 
 14  8  1  0  0  0  0 
 15  7  1  0  0  0  0 
 15 12  2  0  0  0  0 
 15 13  2  0  0  0  0 
 15 14  1  0  0  0  0 
M  END
> <NumberPeaksExplained>
4

> <PeaksExplained>
143.98846_478.0;144.99625_352.0;146.0041_999.0;236.96245_999.0

> <FragmentMolecularFormulas>
143.98846:[C5H4O3S]+;144.99625:[C5H4O3S]+H+;146.0041:[C5H5O3S]+H+;236.96245:[C7H7ClO5S-H]+

> <Score>
0.25344509819388716

> <XlogP3>
4.3

> <InChI>
InChI=1S/C7H7ClO6S/c1-6-2-4-7(5-3-6)15(12,13)14-8(9,10)11/h2-5H,1H3

> <FragmenterScore_Values>
448.0;1572.0;1572.0;1572.0

> <MaximumTreeDepth>
2

> <MonoisotopicMass>
253.965187

> <CompoundName>
perchloryl 4-methylbenzenesulfonate

> <Identifier>
87266305

> <SimScore>
0.5133

> <MolecularFormula>
C7H7ClO6S

> <SMILES>
CC1=CC=C(C=C1)S(=O)(=O)OCl(=O)(=O)=O

> <InChIKey2>
UHFFFAOYSA

> <InChIKey1>
OIDNSVRVHYBLBR

> <FragmenterScore>
303.45660336793196

> <NumberPeaksUsed>
22

$$$$

  CDK     0427161240

 14 14  0  0  0  0  0  0  0  0999 V2000
    0.0000    0.0000    0.0000 C   0  0  0  0  0  0  0  0  0  0  0  0
    0.0000    0.0000    0.0000 C   0  0  0  0  0  0  0  0  0  0  0  0
    0.0000    0.0000    0.0000 C   0  0  0  0  0  0  0  0  0  0  0  0
    0.0000    0.0000    0.0000 C   0  0  0  0  0  0  0  0  0  0  0  0
    0.0000    0.0000    0.0000 C   0  0  0  0  0  0  0  0  0  0  0  0
    0.0000    0.0000    0.0000 C   0  0  0  0  0  0  0  0  0  0  0  0
    0.0000    0.0000    0.0000 C   0  0  0  0  0  0  0  0  0  0  0  0
    0.0000    0.0000    0.0000 C   0  0  0  0  0  0  0  0  0  0  0  0
    0.0000    0.0000    0.0000 C   0  0  0  0  0  0  0  0  0  0  0  0
    0.0000    0.0000    0.0000 Cl  0  0  0  0  0  0  0  0  0  0  0  0
    0.0000    0.0000    0.0000 Cl  0  0  0  0  0  0  0  0  0  0  0  0
    0.0000    0.0000    0.0000 Cl  0  0  0  0  0  0  0  0  0  0  0  0
    0.0000    0.0000    0.0000 O   0  0  0  0  0  0  0  0  0  0  0  0
    0.0000    0.0000    0.0000 O   0  0  0  0  0  0  0  0  0  0  0  0
  4  1  1  0  0  0  0 
  5  4  2  0  0  0  0 
  6  4  1  0  0  0  0 
  7  5  1  0  0  0  0 
  8  2  1  0  0  0  0 
  8  3  1  0  0  0  0 
  8  6  1  0  0  0  0 
  9  7  1  0  0  0  0 
  9  8  1  0  0  0  0 
 10  5  1  0  0  0  0 
 11  9  1  0  0  0  0 
 12  9  1  0  0  0  0 
 13  6  2  0  0  0  0 
 14  7  2  0  0  0  0 
M  END
> <NumberPeaksExplained>
4

> <PeaksExplained>
106.94476_274.0;163.00682_782.0;208.9678_999.0;236.96245_999.0

> <FragmentMolecularFormulas>
106.94476:[C3H3Cl2-2H]+;163.00682:[C7H9Cl2]+;208.9678:[C8H9Cl3-H]+;236.96245:[C9H9Cl3O-H]+

> <Score>
0.2524010817813454

> <XlogP3>
3.1

> <InChI>
InChI=1S/C9H9Cl3O2/c1-4-5(10)7(14)9(11,12)8(2,3)6(4)13/h1-3H3

> <FragmenterScore_Values>
1244.0;843.0;1539.0;1703.0

> <MaximumTreeDepth>
2

> <MonoisotopicMass>
253.966813

> <CompoundName>
2,6,6-trichloro-3,5,5-trimethyl-cyclohex-2-ene-1,4-dione

> <Identifier>
13776961

> <SimScore>
0.5486

> <MolecularFormula>
C9H9Cl3O2

> <SMILES>
CC1=C(C(=O)C(C(C1=O)(C)C)(Cl)Cl)Cl

> <InChIKey2>
UHFFFAOYSA

> <InChIKey1>
JRPPFCZIICOERQ

> <FragmenterScore>
302.2065745582687

> <NumberPeaksUsed>
22

$$$$

  CDK     0427161240

  9  8  0  0  0  0  0  0  0  0999 V2000
    0.0000    0.0000    0.0000 C   0  0  0  0  0  0  0  0  0  0  0  0
    0.0000    0.0000    0.0000 C   0  0  0  0  0  0  0  0  0  0  0  0
    0.0000    0.0000    0.0000 C   0  0  0  0  0  0  0  0  0  0  0  0
    0.0000    0.0000    0.0000 I   0  0  0  0  0  0  0  0  0  0  0  0
    0.0000    0.0000    0.0000 O   0  0  0  0  0  0  0  0  0  0  0  0
    0.0000    0.0000    0.0000 O   0  0  0  0  0  0  0  0  0  0  0  0
    0.0000    0.0000    0.0000 O   0  0  0  0  0  0  0  0  0  0  0  0
    0.0000    0.0000    0.0000 O   0  0  0  0  0  0  0  0  0  0  0  0
    0.0000    0.0000    0.0000 O   0  0  0  0  0  0  0  0  0  0  0  0
  2  1  1  0  0  0  0 
  3  2  1  0  0  0  0 
  5  4  1  0  0  0  0 
  6  4  1  0  0  0  0 
  7  4  1  0  0  0  0 
  8  4  1  0  0  0  0 
  9  3  1  0  0  0  0 
  9  4  1  0  0  0  0 
M  END
> <NumberPeaksExplained>
1

> <PeaksExplained>
236.96245_999.0

> <FragmentMolecularFormulas>
236.96245:[C3H9IO4]+H+

> <Score>
0.24754358284813874

> <XlogP3>
-0.1

> <InChI>
InChI=1S/C3H11IO5/c1-2-3-9-4(5,6,7)8/h5-8H,2-3H2,1H3

> <FragmenterScore_Values>
201.0

> <MaximumTreeDepth>
2

> <MonoisotopicMass>
253.965121

> <CompoundName>
tetrahydroxy(propoxy)-$l^{5}-iodane

> <Identifier>
87084660

> <SimScore>
0.3346

> <MolecularFormula>
C3H11IO5

> <SMILES>
CCCOI(O)(O)(O)O

> <InChIKey2>
UHFFFAOYSA

> <InChIKey1>
QAJFTQUTTJLNSF

> <FragmenterScore>
296.3905610009396

> <NumberPeaksUsed>
22

$$$$

  CDK     0427161240

 14 14  0  0  0  0  0  0  0  0999 V2000
    0.0000    0.0000    0.0000 C   0  0  0  0  0  0  0  0  0  0  0  0
    0.0000    0.0000    0.0000 C   0  0  0  0  0  0  0  0  0  0  0  0
    0.0000    0.0000    0.0000 C   0  0  0  0  0  0  0  0  0  0  0  0
    0.0000    0.0000    0.0000 C   0  0  0  0  0  0  0  0  0  0  0  0
    0.0000    0.0000    0.0000 C   0  0  0  0  0  0  0  0  0  0  0  0
    0.0000    0.0000    0.0000 C   0  0  0  0  0  0  0  0  0  0  0  0
    0.0000    0.0000    0.0000 C   0  0  0  0  0  0  0  0  0  0  0  0
    0.0000    0.0000    0.0000 C   0  0  0  0  0  0  0  0  0  0  0  0
    0.0000    0.0000    0.0000 Cl  0  0  0  0  0  0  0  0  0  0  0  0
    0.0000    0.0000    0.0000 Cl  0  0  0  0  0  0  0  0  0  0  0  0
    0.0000    0.0000    0.0000 O   0  0  0  0  0  0  0  0  0  0  0  0
    0.0000    0.0000    0.0000 O   0  0  0  0  0  0  0  0  0  0  0  0
    0.0000    0.0000    0.0000 O   0  0  0  0  0  0  0  0  0  0  0  0
    0.0000    0.0000    0.0000 P   0  0  0  0  0  0  0  0  0  0  0  0
  4  3  2  0  0  0  0 
  6  3  1  0  0  0  0 
  6  5  2  0  0  0  0 
  7  5  1  0  0  0  0 
  8  4  1  0  0  0  0 
  8  7  2  0  0  0  0 
  9  6  1  0  0  0  0 
 10  7  1  0  0  0  0 
 12  1  1  0  0  0  0 
 13  8  1  0  0  0  0 
 14  2  1  0  0  0  0 
 14 11  2  0  0  0  0 
 14 12  1  0  0  0  0 
 14 13  1  0  0  0  0 
M  END
> <NumberPeaksExplained>
3

> <PeaksExplained>
106.94476_274.0;208.9678_999.0;236.96245_999.0

> <FragmentMolecularFormulas>
106.94476:[C3HCl2]+;208.9678:[C7H5Cl2OP+2H]+H+;236.96245:[C8H9Cl2O2P-H]+

> <Score>
0.24379130499047888

> <XlogP3>
2.6

> <InChI>
InChI=1S/C8H9Cl2O3P/c1-12-14(2,11)13-8-4-3-6(9)5-7(8)10/h3-5H,1-2H3

> <FragmenterScore_Values>
1224.0;644.0;1079.0

> <MaximumTreeDepth>
2

> <MonoisotopicMass>
253.966636

> <CompoundName>
2,4-dichloro-1-[methoxy(methyl)phosphoryl]oxy-benzene

> <Identifier>
85847389

> <SimScore>
0.482

> <MolecularFormula>
C8H9Cl2O3P

> <SMILES>
COP(=O)(C)OC1=C(C=C(C=C1)Cl)Cl

> <InChIKey2>
UHFFFAOYSA

> <InChIKey1>
MAJQFKNYHBVNMK

> <FragmenterScore>
291.89785823536045

> <NumberPeaksUsed>
22

$$$$

  CDK     0427161240

 14 14  0  0  0  0  0  0  0  0999 V2000
    0.0000    0.0000    0.0000 C   0  0  0  0  0  0  0  0  0  0  0  0
    0.0000    0.0000    0.0000 C   0  0  0  0  0  0  0  0  0  0  0  0
    0.0000    0.0000    0.0000 C   0  0  0  0  0  0  0  0  0  0  0  0
    0.0000    0.0000    0.0000 C   0  0  0  0  0  0  0  0  0  0  0  0
    0.0000    0.0000    0.0000 C   0  0  0  0  0  0  0  0  0  0  0  0
    0.0000    0.0000    0.0000 C   0  0  0  0  0  0  0  0  0  0  0  0
    0.0000    0.0000    0.0000 C   0  0  0  0  0  0  0  0  0  0  0  0
    0.0000    0.0000    0.0000 C   0  0  0  0  0  0  0  0  0  0  0  0
    0.0000    0.0000    0.0000 Cl  0  0  0  0  0  0  0  0  0  0  0  0
    0.0000    0.0000    0.0000 Cl  0  0  0  0  0  0  0  0  0  0  0  0
    0.0000    0.0000    0.0000 O   0  0  0  0  0  0  0  0  0  0  0  0
    0.0000    0.0000    0.0000 O   0  0  0  0  0  0  0  0  0  0  0  0
    0.0000    0.0000    0.0000 O   0  0  0  0  0  0  0  0  0  0  0  0
    0.0000    0.0000    0.0000 P   0  0  0  0  0  0  0  0  0  0  0  0
  6  3  2  0  0  0  0 
  6  4  1  0  0  0  0 
  7  3  1  0  0  0  0 
  7  5  2  0  0  0  0 
  8  4  2  0  0  0  0 
  8  5  1  0  0  0  0 
  9  6  1  0  0  0  0 
 10  7  1  0  0  0  0 
 12  1  1  0  0  0  0 
 13  2  1  0  0  0  0 
 14  8  1  0  0  0  0 
 14 11  2  0  0  0  0 
 14 12  1  0  0  0  0 
 14 13  1  0  0  0  0 
M  END
> <NumberPeaksExplained>
3

> <PeaksExplained>
106.94476_274.0;208.9678_999.0;236.96245_999.0

> <FragmentMolecularFormulas>
106.94476:[C3HCl2]+;208.9678:[C7H5Cl2OP+2H]+H+;236.96245:[C8H9Cl2O2P-H]+

> <Score>
0.24379130499047888

> <XlogP3>
2.2

> <InChI>
InChI=1S/C8H9Cl2O3P/c1-12-14(11,13-2)8-4-6(9)3-7(10)5-8/h3-5H,1-2H3

> <FragmenterScore_Values>
1224.0;644.0;1079.0

> <MaximumTreeDepth>
2

> <MonoisotopicMass>
253.966636

> <CompoundName>
1,3-dichloro-5-dimethoxyphosphoryl-benzene

> <Identifier>
11459486

> <SimScore>
0.482

> <MolecularFormula>
C8H9Cl2O3P

> <SMILES>
COP(=O)(C1=CC(=CC(=C1)Cl)Cl)OC

> <InChIKey2>
UHFFFAOYSA

> <InChIKey1>
NMPLAVOYGMKMBM

> <FragmenterScore>
291.89785823536045

> <NumberPeaksUsed>
22

$$$$

  CDK     0427161240

 16 17  0  0  0  0  0  0  0  0999 V2000
    0.0000    0.0000    0.0000 C   0  0  0  0  0  0  0  0  0  0  0  0
    0.0000    0.0000    0.0000 C   0  0  0  0  0  0  0  0  0  0  0  0
    0.0000    0.0000    0.0000 C   0  0  0  0  0  0  0  0  0  0  0  0
    0.0000    0.0000    0.0000 C   0  0  0  0  0  0  0  0  0  0  0  0
    0.0000    0.0000    0.0000 C   0  0  0  0  0  0  0  0  0  0  0  0
    0.0000    0.0000    0.0000 C   0  0  0  0  0  0  0  0  0  0  0  0
    0.0000    0.0000    0.0000 C   0  0  0  0  0  0  0  0  0  0  0  0
    0.0000    0.0000    0.0000 C   0  0  0  0  0  0  0  0  0  0  0  0
    0.0000    0.0000    0.0000 C   0  0  0  0  0  0  0  0  0  0  0  0
    0.0000    0.0000    0.0000 C   0  0  0  0  0  0  0  0  0  0  0  0
    0.0000    0.0000    0.0000 Cl  0  0  0  0  0  0  0  0  0  0  0  0
    0.0000    0.0000    0.0000 Cl  0  0  0  0  0  0  0  0  0  0  0  0
    0.0000    0.0000    0.0000 N   0  0  0  0  0  0  0  0  0  0  0  0
    0.0000    0.0000    0.0000 N   0  0  0  0  0  0  0  0  0  0  0  0
    0.0000    0.0000    0.0000 O   0  0  0  0  0  0  0  0  0  0  0  0
    0.0000    0.0000    0.0000 O   0  0  0  0  0  0  0  0  0  0  0  0
  2  1  2  0  0  0  0 
  6  1  1  0  0  0  0 
  6  3  2  0  0  0  0 
  7  2  1  0  0  0  0 
  8  3  1  0  0  0  0 
  8  7  2  0  0  0  0 
  9  4  1  0  0  0  0 
  9  6  1  0  0  0  0 
 10  4  2  0  0  0  0 
 11  7  1  0  0  0  0 
 12  8  1  0  0  0  0 
 13  5  2  0  0  0  0 
 13 10  1  0  0  0  0 
 14  9  2  0  0  0  0 
 15  5  2  0  0  0  0 
 16 10  1  0  0  0  0 
 16 14  1  0  0  0  0 
M  END
> <NumberPeaksExplained>
5

> <PeaksExplained>
106.94476_274.0;115.98965_95.0;178.97725_391.0;208.9678_999.0;236.96245_999.0

> <FragmentMolecularFormulas>
106.94476:[C3HCl2]+;115.98965:[C4HClNO+H]+H+;178.97725:[C8H3ClNO2-H]+;208.9678:[C9H4Cl2N2-H]+;236.96245:[C10H4Cl2N2O-H]+

> <Score>
0.2340253875631186

> <XlogP3>
4.4

> <InChI>
InChI=1S/C10H4Cl2N2O2/c11-7-2-1-6(3-8(7)12)9-4-10(13-5-15)16-14-9/h1-4H

> <FragmenterScore_Values>
2544.0;1224.0;2679.0;843.0;2063.0

> <MaximumTreeDepth>
2

> <MonoisotopicMass>
253.964983

> <CompoundName>
3-(3,4-dichlorophenyl)-5-isocyanato-isoxazole

> <Identifier>
83802912

> <SimScore>
0.5005

> <MolecularFormula>
C10H4Cl2N2O2

> <SMILES>
C1=CC(=C(C=C1C2=NOC(=C2)N=C=O)Cl)Cl

> <InChIKey2>
UHFFFAOYSA

> <InChIKey1>
RXSJWEUSLLAWQX

> <FragmenterScore>
280.2048637667465

> <NumberPeaksUsed>
22

$$$$

  CDK     0427161240

 14 14  0  0  0  0  0  0  0  0999 V2000
    0.0000    0.0000    0.0000 C   0  0  0  0  0  0  0  0  0  0  0  0
    0.0000    0.0000    0.0000 C   0  0  0  0  0  0  0  0  0  0  0  0
    0.0000    0.0000    0.0000 C   0  0  0  0  0  0  0  0  0  0  0  0
    0.0000    0.0000    0.0000 C   0  0  0  0  0  0  0  0  0  0  0  0
    0.0000    0.0000    0.0000 C   0  0  0  0  0  0  0  0  0  0  0  0
    0.0000    0.0000    0.0000 C   0  0  0  0  0  0  0  0  0  0  0  0
    0.0000    0.0000    0.0000 C   0  0  0  0  0  0  0  0  0  0  0  0
    0.0000    0.0000    0.0000 C   0  0  0  0  0  0  0  0  0  0  0  0
    0.0000    0.0000    0.0000 Cl  0  0  0  0  0  0  0  0  0  0  0  0
    0.0000    0.0000    0.0000 Cl  0  0  0  0  0  0  0  0  0  0  0  0
    0.0000    0.0000    0.0000 O   0  0  0  0  0  0  0  0  0  0  0  0
    0.0000    0.0000    0.0000 O   0  0  0  0  0  0  0  0  0  0  0  0
    0.0000    0.0000    0.0000 O   0  0  0  0  0  0  0  0  0  0  0  0
    0.0000    0.0000    0.0000 P   0  0  0  0  0  0  0  0  0  0  0  0
  3  2  2  0  0  0  0 
  4  2  1  0  0  0  0 
  5  3  1  0  0  0  0 
  6  4  2  0  0  0  0 
  7  5  2  0  0  0  0 
  7  6  1  0  0  0  0 
  9  8  1  0  0  0  0 
 10  8  1  0  0  0  0 
 12  1  1  0  0  0  0 
 13  7  1  0  0  0  0 
 14  8  1  0  0  0  0 
 14 11  2  0  0  0  0 
 14 12  1  0  0  0  0 
 14 13  1  0  0  0  0 
M  END
> <NumberPeaksExplained>
2

> <PeaksExplained>
208.9678_999.0;236.96245_999.0

> <FragmentMolecularFormulas>
208.9678:[C7H5Cl2OP+2H]+H+;236.96245:[C8H9Cl2O2P-H]+

> <Score>
0.23237123125626874

> <XlogP3>
2.7

> <InChI>
InChI=1S/C8H9Cl2O3P/c1-12-14(11,8(9)10)13-7-5-3-2-4-6-7/h2-6,8H,1H3

> <FragmenterScore_Values>
644.0;1079.0

> <MaximumTreeDepth>
2

> <MonoisotopicMass>
253.966636

> <CompoundName>
[dichloromethyl(methoxy)phosphoryl]oxybenzene

> <Identifier>
85976953

> <SimScore>
0.4732

> <MolecularFormula>
C8H9Cl2O3P

> <SMILES>
COP(=O)(C(Cl)Cl)OC1=CC=CC=C1

> <InChIKey2>
UHFFFAOYSA

> <InChIKey1>
XCCGALBKEYUDQT

> <FragmenterScore>
278.22429812198385

> <NumberPeaksUsed>
22

$$$$

  CDK     0427161240

 14 14  0  0  0  0  0  0  0  0999 V2000
    0.0000    0.0000    0.0000 C   0  0  0  0  0  0  0  0  0  0  0  0
    0.0000    0.0000    0.0000 C   0  0  0  0  0  0  0  0  0  0  0  0
    0.0000    0.0000    0.0000 C   0  0  0  0  0  0  0  0  0  0  0  0
    0.0000    0.0000    0.0000 C   0  0  0  0  0  0  0  0  0  0  0  0
    0.0000    0.0000    0.0000 C   0  0  0  0  0  0  0  0  0  0  0  0
    0.0000    0.0000    0.0000 C   0  0  0  0  0  0  0  0  0  0  0  0
    0.0000    0.0000    0.0000 C   0  0  0  0  0  0  0  0  0  0  0  0
    0.0000    0.0000    0.0000 C   0  0  0  0  0  0  0  0  0  0  0  0
    0.0000    0.0000    0.0000 Cl  0  0  0  0  0  0  0  0  0  0  0  0
    0.0000    0.0000    0.0000 Cl  0  0  0  0  0  0  0  0  0  0  0  0
    0.0000    0.0000    0.0000 O   0  0  0  0  0  0  0  0  0  0  0  0
    0.0000    0.0000    0.0000 O   0  0  0  0  0  0  0  0  0  0  0  0
    0.0000    0.0000    0.0000 O   0  0  0  0  0  0  0  0  0  0  0  0
    0.0000    0.0000    0.0000 P   0  0  0  0  0  0  0  0  0  0  0  0
  4  3  2  0  0  0  0 
  6  3  1  0  0  0  0 
  6  5  2  0  0  0  0 
  7  4  1  0  0  0  0 
  8  5  1  0  0  0  0 
  8  7  2  0  0  0  0 
  9  6  1  0  0  0  0 
 10  7  1  0  0  0  0 
 12  1  1  0  0  0  0 
 13  2  1  0  0  0  0 
 14  8  1  0  0  0  0 
 14 11  2  0  0  0  0 
 14 12  1  0  0  0  0 
 14 13  1  0  0  0  0 
M  END
> <NumberPeaksExplained>
2

> <PeaksExplained>
208.9678_999.0;236.96245_999.0

> <FragmentMolecularFormulas>
208.9678:[C7H5Cl2OP+2H]+H+;236.96245:[C8H9Cl2O2P-H]+

> <Score>
0.23237123125626874

> <XlogP3>
2.3

> <InChI>
InChI=1S/C8H9Cl2O3P/c1-12-14(11,13-2)8-5-6(9)3-4-7(8)10/h3-5H,1-2H3

> <FragmenterScore_Values>
644.0;1079.0

> <MaximumTreeDepth>
2

> <MonoisotopicMass>
253.966636

> <CompoundName>
1,4-dichloro-2-dimethoxyphosphoryl-benzene

> <Identifier>
13836147

> <SimScore>
0.4732

> <MolecularFormula>
C8H9Cl2O3P

> <SMILES>
COP(=O)(C1=C(C=CC(=C1)Cl)Cl)OC

> <InChIKey2>
UHFFFAOYSA

> <InChIKey1>
YLGDTVHSGCLACX

> <FragmenterScore>
278.22429812198385

> <NumberPeaksUsed>
22

$$$$

  CDK     0427161240

 14 14  0  0  0  0  0  0  0  0999 V2000
    0.0000    0.0000    0.0000 C   0  0  0  0  0  0  0  0  0  0  0  0
    0.0000    0.0000    0.0000 C   0  0  0  0  0  0  0  0  0  0  0  0
    0.0000    0.0000    0.0000 C   0  0  0  0  0  0  0  0  0  0  0  0
    0.0000    0.0000    0.0000 C   0  0  0  0  0  0  0  0  0  0  0  0
    0.0000    0.0000    0.0000 C   0  0  0  0  0  0  0  0  0  0  0  0
    0.0000    0.0000    0.0000 C   0  0  0  0  0  0  0  0  0  0  0  0
    0.0000    0.0000    0.0000 C   0  0  0  0  0  0  0  0  0  0  0  0
    0.0000    0.0000    0.0000 C   0  0  0  0  0  0  0  0  0  0  0  0
    0.0000    0.0000    0.0000 Cl  0  0  0  0  0  0  0  0  0  0  0  0
    0.0000    0.0000    0.0000 Cl  0  0  0  0  0  0  0  0  0  0  0  0
    0.0000    0.0000    0.0000 O   0  0  0  0  0  0  0  0  0  0  0  0
    0.0000    0.0000    0.0000 O   0  0  0  0  0  0  0  0  0  0  0  0
    0.0000    0.0000    0.0000 O   0  0  0  0  0  0  0  0  0  0  0  0
    0.0000    0.0000    0.0000 P   0  0  0  0  0  0  0  0  0  0  0  0
  2  1  1  0  0  0  0 
  4  3  2  0  0  0  0 
  6  3  1  0  0  0  0 
  6  5  2  0  0  0  0 
  7  5  1  0  0  0  0 
  8  4  1  0  0  0  0 
  8  7  2  0  0  0  0 
  9  6  1  0  0  0  0 
 10  7  1  0  0  0  0 
 13  2  1  0  0  0  0 
 14  8  1  0  0  0  0 
 14 11  1  0  0  0  0 
 14 12  2  0  0  0  0 
 14 13  1  0  0  0  0 
M  END
> <NumberPeaksExplained>
2

> <PeaksExplained>
106.94476_274.0;236.96245_999.0

> <FragmentMolecularFormulas>
106.94476:[C3HCl2]+;236.96245:[C8H7Cl2O2P]+H+

> <Score>
0.20612760940745647

> <XlogP3>
2.1

> <InChI>
InChI=1S/C8H9Cl2O3P/c1-2-13-14(11,12)8-4-3-6(9)5-7(8)10/h3-5H,2H2,1H3,(H,11,12)

> <FragmenterScore_Values>
1224.0;335.0

> <MaximumTreeDepth>
2

> <MonoisotopicMass>
253.966636

> <CompoundName>
(2,4-dichlorophenyl)-ethoxy-phosphinic acid

> <Identifier>
59481704

> <SimScore>
0.347

> <MolecularFormula>
C8H9Cl2O3P

> <SMILES>
CCOP(=O)(C1=C(C=C(C=C1)Cl)Cl)O

> <InChIKey2>
UHFFFAOYSA

> <InChIKey1>
RKCDBEDBAHEKKE

> <FragmenterScore>
246.80210687399745

> <NumberPeaksUsed>
22

$$$$

  CDK     0427161240

 14 14  0  0  0  0  0  0  0  0999 V2000
    0.0000    0.0000    0.0000 C   0  0  0  0  0  0  0  0  0  0  0  0
    0.0000    0.0000    0.0000 C   0  0  0  0  0  0  0  0  0  0  0  0
    0.0000    0.0000    0.0000 C   0  0  0  0  0  0  0  0  0  0  0  0
    0.0000    0.0000    0.0000 C   0  0  0  0  0  0  0  0  0  0  0  0
    0.0000    0.0000    0.0000 C   0  0  0  0  0  0  0  0  0  0  0  0
    0.0000    0.0000    0.0000 C   0  0  0  0  0  0  0  0  0  0  0  0
    0.0000    0.0000    0.0000 C   0  0  0  0  0  0  0  0  0  0  0  0
    0.0000    0.0000    0.0000 C   0  0  0  0  0  0  0  0  0  0  0  0
    0.0000    0.0000    0.0000 Cl  0  0  0  0  0  0  0  0  0  0  0  0
    0.0000    0.0000    0.0000 Cl  0  0  0  0  0  0  0  0  0  0  0  0
    0.0000    0.0000    0.0000 O   0  0  0  0  0  0  0  0  0  0  0  0
    0.0000    0.0000    0.0000 O   0  0  0  0  0  0  0  0  0  0  0  0
    0.0000    0.0000    0.0000 O   0  0  0  0  0  0  0  0  0  0  0  0
    0.0000    0.0000    0.0000 P   0  0  0  0  0  0  0  0  0  0  0  0
  2  1  1  0  0  0  0 
  6  3  2  0  0  0  0 
  6  4  1  0  0  0  0 
  7  3  1  0  0  0  0 
  7  5  2  0  0  0  0 
  8  4  2  0  0  0  0 
  8  5  1  0  0  0  0 
  9  6  1  0  0  0  0 
 10  7  1  0  0  0  0 
 13  2  1  0  0  0  0 
 14  8  1  0  0  0  0 
 14 11  1  0  0  0  0 
 14 12  2  0  0  0  0 
 14 13  1  0  0  0  0 
M  END
> <NumberPeaksExplained>
2

> <PeaksExplained>
106.94476_274.0;236.96245_999.0

> <FragmentMolecularFormulas>
106.94476:[C3HCl2]+;236.96245:[C8H7Cl2O2P]+H+

> <Score>
0.20612760940745647

> <XlogP3>
2.1

> <InChI>
InChI=1S/C8H9Cl2O3P/c1-2-13-14(11,12)8-4-6(9)3-7(10)5-8/h3-5H,2H2,1H3,(H,11,12)

> <FragmenterScore_Values>
1224.0;335.0

> <MaximumTreeDepth>
2

> <MonoisotopicMass>
253.966636

> <CompoundName>
(3,5-dichlorophenyl)-ethoxy-phosphinic acid

> <Identifier>
57681269

> <SimScore>
0.347

> <MolecularFormula>
C8H9Cl2O3P

> <SMILES>
CCOP(=O)(C1=CC(=CC(=C1)Cl)Cl)O

> <InChIKey2>
UHFFFAOYSA

> <InChIKey1>
JDKXBYFEPOMVHI

> <FragmenterScore>
246.80210687399745

> <NumberPeaksUsed>
22

$$$$

  CDK     0427161240

 14 14  0  0  0  0  0  0  0  0999 V2000
    0.0000    0.0000    0.0000 C   0  0  0  0  0  0  0  0  0  0  0  0
    0.0000    0.0000    0.0000 C   0  0  0  0  0  0  0  0  0  0  0  0
    0.0000    0.0000    0.0000 C   0  0  0  0  0  0  0  0  0  0  0  0
    0.0000    0.0000    0.0000 C   0  0  0  0  0  0  0  0  0  0  0  0
    0.0000    0.0000    0.0000 C   0  0  0  0  0  0  0  0  0  0  0  0
    0.0000    0.0000    0.0000 C   0  0  0  0  0  0  0  0  0  0  0  0
    0.0000    0.0000    0.0000 C   0  0  0  0  0  0  0  0  0  0  0  0
    0.0000    0.0000    0.0000 C   0  0  0  0  0  0  0  0  0  0  0  0
    0.0000    0.0000    0.0000 C   0  0  0  0  0  0  0  0  0  0  0  0
    0.0000    0.0000    0.0000 Cl  0  0  0  0  0  0  0  0  0  0  0  0
    0.0000    0.0000    0.0000 Cl  0  0  0  0  0  0  0  0  0  0  0  0
    0.0000    0.0000    0.0000 Cl  0  0  0  0  0  0  0  0  0  0  0  0
    0.0000    0.0000    0.0000 O   0  0  0  0  0  0  0  0  0  0  0  0
    0.0000    0.0000    0.0000 O   0  0  0  0  0  0  0  0  0  0  0  0
  5  1  1  0  0  0  0 
  5  4  1  0  0  0  0 
  6  2  2  0  0  0  0 
  6  3  1  0  0  0  0 
  7  2  1  0  0  0  0 
  8  3  2  0  0  0  0 
  9  7  2  0  0  0  0 
  9  8  1  0  0  0  0 
 10  6  1  0  0  0  0 
 11  7  1  0  0  0  0 
 12  8  1  0  0  0  0 
 13  5  1  0  0  0  0 
 14  4  1  0  0  0  0 
 14  9  1  0  0  0  0 
M  END
> <NumberPeaksExplained>
2

> <PeaksExplained>
106.94476_274.0;236.96245_999.0

> <FragmentMolecularFormulas>
106.94476:[C3HCl2]+;236.96245:[C9H7Cl3O]+H+

> <Score>
0.1996512881024912

> <XlogP3>
3.8

> <InChI>
InChI=1S/C9H9Cl3O2/c1-5(13)4-14-9-7(11)2-6(10)3-8(9)12/h2-3,5,13H,4H2,1H3/t5-/m0/s1

> <FragmenterScore_Values>
1224.0;360.0

> <MaximumTreeDepth>
2

> <MonoisotopicMass>
253.966813

> <CompoundName>
(2S)-1-(2,4,6-trichlorophenoxy)propan-2-ol

> <Identifier>
81847503

> <SimScore>
0.347

> <MolecularFormula>
C9H9Cl3O2

> <SMILES>
C[C@@H](COC1=C(C=C(C=C1Cl)Cl)Cl)O

> <InChIKey2>
YFKPBYRVSA

> <InChIKey1>
ONXGBYGTVMNZKR

> <FragmenterScore>
239.04783393863895

> <NumberPeaksUsed>
22

$$$$

  CDK     0427161240

 14 14  0  0  0  0  0  0  0  0999 V2000
    0.0000    0.0000    0.0000 C   0  0  0  0  0  0  0  0  0  0  0  0
    0.0000    0.0000    0.0000 C   0  0  0  0  0  0  0  0  0  0  0  0
    0.0000    0.0000    0.0000 C   0  0  0  0  0  0  0  0  0  0  0  0
    0.0000    0.0000    0.0000 C   0  0  0  0  0  0  0  0  0  0  0  0
    0.0000    0.0000    0.0000 C   0  0  0  0  0  0  0  0  0  0  0  0
    0.0000    0.0000    0.0000 C   0  0  0  0  0  0  0  0  0  0  0  0
    0.0000    0.0000    0.0000 C   0  0  0  0  0  0  0  0  0  0  0  0
    0.0000    0.0000    0.0000 C   0  0  0  0  0  0  0  0  0  0  0  0
    0.0000    0.0000    0.0000 C   0  0  0  0  0  0  0  0  0  0  0  0
    0.0000    0.0000    0.0000 Cl  0  0  0  0  0  0  0  0  0  0  0  0
    0.0000    0.0000    0.0000 Cl  0  0  0  0  0  0  0  0  0  0  0  0
    0.0000    0.0000    0.0000 Cl  0  0  0  0  0  0  0  0  0  0  0  0
    0.0000    0.0000    0.0000 O   0  0  0  0  0  0  0  0  0  0  0  0
    0.0000    0.0000    0.0000 O   0  0  0  0  0  0  0  0  0  0  0  0
  5  1  1  0  0  0  0 
  5  4  1  0  0  0  0 
  6  2  2  0  0  0  0 
  6  3  1  0  0  0  0 
  7  2  1  0  0  0  0 
  8  3  2  0  0  0  0 
  9  7  2  0  0  0  0 
  9  8  1  0  0  0  0 
 10  6  1  0  0  0  0 
 11  7  1  0  0  0  0 
 12  8  1  0  0  0  0 
 13  5  1  0  0  0  0 
 14  4  1  0  0  0  0 
 14  9  1  0  0  0  0 
M  END
> <NumberPeaksExplained>
2

> <PeaksExplained>
106.94476_274.0;236.96245_999.0

> <FragmentMolecularFormulas>
106.94476:[C3HCl2]+;236.96245:[C9H7Cl3O]+H+

> <Score>
0.1996512881024912

> <XlogP3>
3.8

> <InChI>
InChI=1S/C9H9Cl3O2/c1-5(13)4-14-9-7(11)2-6(10)3-8(9)12/h2-3,5,13H,4H2,1H3/t5-/m1/s1

> <FragmenterScore_Values>
1224.0;360.0

> <MaximumTreeDepth>
2

> <MonoisotopicMass>
253.966813

> <CompoundName>
(2R)-1-(2,4,6-trichlorophenoxy)propan-2-ol

> <Identifier>
81847540

> <SimScore>
0.347

> <MolecularFormula>
C9H9Cl3O2

> <SMILES>
C[C@H](COC1=C(C=C(C=C1Cl)Cl)Cl)O

> <InChIKey2>
RXMQYKEDSA

> <InChIKey1>
ONXGBYGTVMNZKR

> <FragmenterScore>
239.04783393863895

> <NumberPeaksUsed>
22

$$$$

  CDK     0427161240

 14 14  0  0  0  0  0  0  0  0999 V2000
    0.0000    0.0000    0.0000 C   0  0  0  0  0  0  0  0  0  0  0  0
    0.0000    0.0000    0.0000 C   0  0  0  0  0  0  0  0  0  0  0  0
    0.0000    0.0000    0.0000 C   0  0  0  0  0  0  0  0  0  0  0  0
    0.0000    0.0000    0.0000 C   0  0  0  0  0  0  0  0  0  0  0  0
    0.0000    0.0000    0.0000 C   0  0  0  0  0  0  0  0  0  0  0  0
    0.0000    0.0000    0.0000 C   0  0  0  0  0  0  0  0  0  0  0  0
    0.0000    0.0000    0.0000 C   0  0  0  0  0  0  0  0  0  0  0  0
    0.0000    0.0000    0.0000 C   0  0  0  0  0  0  0  0  0  0  0  0
    0.0000    0.0000    0.0000 C   0  0  0  0  0  0  0  0  0  0  0  0
    0.0000    0.0000    0.0000 Cl  0  0  0  0  0  0  0  0  0  0  0  0
    0.0000    0.0000    0.0000 Cl  0  0  0  0  0  0  0  0  0  0  0  0
    0.0000    0.0000    0.0000 Cl  0  0  0  0  0  0  0  0  0  0  0  0
    0.0000    0.0000    0.0000 O   0  0  0  0  0  0  0  0  0  0  0  0
    0.0000    0.0000    0.0000 O   0  0  0  0  0  0  0  0  0  0  0  0
  5  1  1  0  0  0  0 
  5  4  1  0  0  0  0 
  6  2  2  0  0  0  0 
  7  3  2  0  0  0  0 
  7  6  1  0  0  0  0 
  8  2  1  0  0  0  0 
  9  3  1  0  0  0  0 
  9  8  2  0  0  0  0 
 10  6  1  0  0  0  0 
 11  7  1  0  0  0  0 
 12  8  1  0  0  0  0 
 13  4  1  0  0  0  0 
 14  5  1  0  0  0  0 
 14  9  1  0  0  0  0 
M  END
> <NumberPeaksExplained>
2

> <PeaksExplained>
106.94476_274.0;236.96245_999.0

> <FragmentMolecularFormulas>
106.94476:[C3HCl2]+;236.96245:[C9H7Cl3O]+H+

> <Score>
0.1996512881024912

> <XlogP3>
3.5

> <InChI>
InChI=1S/C9H9Cl3O2/c1-5(4-13)14-9-3-7(11)6(10)2-8(9)12/h2-3,5,13H,4H2,1H3/t5-/m1/s1

> <FragmenterScore_Values>
1224.0;360.0

> <MaximumTreeDepth>
2

> <MonoisotopicMass>
253.966813

> <CompoundName>
(2R)-2-(2,4,5-trichlorophenoxy)propan-1-ol

> <Identifier>
71445532

> <SimScore>
0.347

> <MolecularFormula>
C9H9Cl3O2

> <SMILES>
C[C@H](CO)OC1=CC(=C(C=C1Cl)Cl)Cl

> <InChIKey2>
RXMQYKEDSA

> <InChIKey1>
LYJSRGNYLMKMOP

> <FragmenterScore>
239.04783393863895

> <NumberPeaksUsed>
22

$$$$

  CDK     0427161240

 14 14  0  0  0  0  0  0  0  0999 V2000
    0.0000    0.0000    0.0000 C   0  0  0  0  0  0  0  0  0  0  0  0
    0.0000    0.0000    0.0000 C   0  0  0  0  0  0  0  0  0  0  0  0
    0.0000    0.0000    0.0000 C   0  0  0  0  0  0  0  0  0  0  0  0
    0.0000    0.0000    0.0000 C   0  0  0  0  0  0  0  0  0  0  0  0
    0.0000    0.0000    0.0000 C   0  0  0  0  0  0  0  0  0  0  0  0
    0.0000    0.0000    0.0000 C   0  0  0  0  0  0  0  0  0  0  0  0
    0.0000    0.0000    0.0000 C   0  0  0  0  0  0  0  0  0  0  0  0
    0.0000    0.0000    0.0000 C   0  0  0  0  0  0  0  0  0  0  0  0
    0.0000    0.0000    0.0000 C   0  0  0  0  0  0  0  0  0  0  0  0
    0.0000    0.0000    0.0000 Cl  0  0  0  0  0  0  0  0  0  0  0  0
    0.0000    0.0000    0.0000 Cl  0  0  0  0  0  0  0  0  0  0  0  0
    0.0000    0.0000    0.0000 Cl  0  0  0  0  0  0  0  0  0  0  0  0
    0.0000    0.0000    0.0000 O   0  0  0  0  0  0  0  0  0  0  0  0
    0.0000    0.0000    0.0000 O   0  0  0  0  0  0  0  0  0  0  0  0
  2  1  2  0  0  0  0 
  4  3  1  0  0  0  0 
  6  1  1  0  0  0  0 
  6  5  2  0  0  0  0 
  7  5  1  0  0  0  0 
  8  2  1  0  0  0  0 
  8  7  2  0  0  0  0 
  9  3  1  0  0  0  0 
 10  4  1  0  0  0  0 
 11  6  1  0  0  0  0 
 12  7  1  0  0  0  0 
 13  9  1  0  0  0  0 
 14  8  1  0  0  0  0 
 14  9  1  0  0  0  0 
M  END
> <NumberPeaksExplained>
2

> <PeaksExplained>
106.94476_274.0;236.96245_999.0

> <FragmentMolecularFormulas>
106.94476:[C3HCl2]+;236.96245:[C9H7Cl3O]+H+

> <Score>
0.1996512881024912

> <XlogP3>
3.6

> <InChI>
InChI=1S/C9H9Cl3O2/c10-4-3-9(13)14-8-2-1-6(11)5-7(8)12/h1-2,5,9,13H,3-4H2

> <FragmenterScore_Values>
1224.0;360.0

> <MaximumTreeDepth>
2

> <MonoisotopicMass>
253.966813

> <CompoundName>
3-chloro-1-(2,4-dichlorophenoxy)propan-1-ol

> <Identifier>
70540582

> <SimScore>
0.347

> <MolecularFormula>
C9H9Cl3O2

> <SMILES>
C1=CC(=C(C=C1Cl)Cl)OC(CCCl)O

> <InChIKey2>
UHFFFAOYSA

> <InChIKey1>
YSJNTYWUWCJROD

> <FragmenterScore>
239.04783393863895

> <NumberPeaksUsed>
22

$$$$

  CDK     0427161240

 14 14  0  0  0  0  0  0  0  0999 V2000
    0.0000    0.0000    0.0000 C   0  0  0  0  0  0  0  0  0  0  0  0
    0.0000    0.0000    0.0000 C   0  0  0  0  0  0  0  0  0  0  0  0
    0.0000    0.0000    0.0000 C   0  0  0  0  0  0  0  0  0  0  0  0
    0.0000    0.0000    0.0000 C   0  0  0  0  0  0  0  0  0  0  0  0
    0.0000    0.0000    0.0000 C   0  0  0  0  0  0  0  0  0  0  0  0
    0.0000    0.0000    0.0000 C   0  0  0  0  0  0  0  0  0  0  0  0
    0.0000    0.0000    0.0000 C   0  0  0  0  0  0  0  0  0  0  0  0
    0.0000    0.0000    0.0000 C   0  0  0  0  0  0  0  0  0  0  0  0
    0.0000    0.0000    0.0000 C   0  0  0  0  0  0  0  0  0  0  0  0
    0.0000    0.0000    0.0000 Cl  0  0  0  0  0  0  0  0  0  0  0  0
    0.0000    0.0000    0.0000 Cl  0  0  0  0  0  0  0  0  0  0  0  0
    0.0000    0.0000    0.0000 Cl  0  0  0  0  0  0  0  0  0  0  0  0
    0.0000    0.0000    0.0000 O   0  0  0  0  0  0  0  0  0  0  0  0
    0.0000    0.0000    0.0000 O   0  0  0  0  0  0  0  0  0  0  0  0
  5  1  1  0  0  0  0 
  5  4  1  0  0  0  0 
  6  2  2  0  0  0  0 
  7  3  2  0  0  0  0 
  7  6  1  0  0  0  0 
  8  2  1  0  0  0  0 
  9  3  1  0  0  0  0 
  9  8  2  0  0  0  0 
 10  6  1  0  0  0  0 
 11  7  1  0  0  0  0 
 12  8  1  0  0  0  0 
 13  5  1  0  0  0  0 
 14  4  1  0  0  0  0 
 14  9  1  0  0  0  0 
M  END
> <NumberPeaksExplained>
2

> <PeaksExplained>
106.94476_274.0;236.96245_999.0

> <FragmentMolecularFormulas>
106.94476:[C3HCl2]+;236.96245:[C9H7Cl3O]+H+

> <Score>
0.1996512881024912

> <XlogP3>
3.5

> <InChI>
InChI=1S/C9H9Cl3O2/c1-5(13)4-14-9-3-7(11)6(10)2-8(9)12/h2-3,5,13H,4H2,1H3

> <FragmenterScore_Values>
1224.0;360.0

> <MaximumTreeDepth>
2

> <MonoisotopicMass>
253.966813

> <CompoundName>
1-(2,4,5-trichlorophenoxy)propan-2-ol

> <Identifier>
65277662

> <SimScore>
0.347

> <MolecularFormula>
C9H9Cl3O2

> <SMILES>
CC(COC1=CC(=C(C=C1Cl)Cl)Cl)O

> <InChIKey2>
UHFFFAOYSA

> <InChIKey1>
BXFLDFCHGXIENN

> <FragmenterScore>
239.04783393863895

> <NumberPeaksUsed>
22

$$$$

  CDK     0427161240

 14 14  0  0  0  0  0  0  0  0999 V2000
    0.0000    0.0000    0.0000 C   0  0  0  0  0  0  0  0  0  0  0  0
    0.0000    0.0000    0.0000 C   0  0  0  0  0  0  0  0  0  0  0  0
    0.0000    0.0000    0.0000 C   0  0  0  0  0  0  0  0  0  0  0  0
    0.0000    0.0000    0.0000 C   0  0  0  0  0  0  0  0  0  0  0  0
    0.0000    0.0000    0.0000 C   0  0  0  0  0  0  0  0  0  0  0  0
    0.0000    0.0000    0.0000 C   0  0  0  0  0  0  0  0  0  0  0  0
    0.0000    0.0000    0.0000 C   0  0  0  0  0  0  0  0  0  0  0  0
    0.0000    0.0000    0.0000 C   0  0  0  0  0  0  0  0  0  0  0  0
    0.0000    0.0000    0.0000 C   0  0  0  0  0  0  0  0  0  0  0  0
    0.0000    0.0000    0.0000 Cl  0  0  0  0  0  0  0  0  0  0  0  0
    0.0000    0.0000    0.0000 Cl  0  0  0  0  0  0  0  0  0  0  0  0
    0.0000    0.0000    0.0000 Cl  0  0  0  0  0  0  0  0  0  0  0  0
    0.0000    0.0000    0.0000 O   0  0  0  0  0  0  0  0  0  0  0  0
    0.0000    0.0000    0.0000 O   0  0  0  0  0  0  0  0  0  0  0  0
  5  1  1  0  0  0  0 
  5  4  1  0  0  0  0 
  6  2  2  0  0  0  0 
  6  3  1  0  0  0  0 
  7  2  1  0  0  0  0 
  8  3  2  0  0  0  0 
  9  7  2  0  0  0  0 
  9  8  1  0  0  0  0 
 10  6  1  0  0  0  0 
 11  7  1  0  0  0  0 
 12  8  1  0  0  0  0 
 13  5  1  0  0  0  0 
 14  4  1  0  0  0  0 
 14  9  1  0  0  0  0 
M  END
> <NumberPeaksExplained>
2

> <PeaksExplained>
106.94476_274.0;236.96245_999.0

> <FragmentMolecularFormulas>
106.94476:[C3HCl2]+;236.96245:[C9H7Cl3O]+H+

> <Score>
0.1996512881024912

> <XlogP3>
3.8

> <InChI>
InChI=1S/C9H9Cl3O2/c1-5(13)4-14-9-7(11)2-6(10)3-8(9)12/h2-3,5,13H,4H2,1H3

> <FragmenterScore_Values>
1224.0;360.0

> <MaximumTreeDepth>
2

> <MonoisotopicMass>
253.966813

> <CompoundName>
1-(2,4,6-trichlorophenoxy)propan-2-ol

> <Identifier>
61799053

> <SimScore>
0.347

> <MolecularFormula>
C9H9Cl3O2

> <SMILES>
CC(COC1=C(C=C(C=C1Cl)Cl)Cl)O

> <InChIKey2>
UHFFFAOYSA

> <InChIKey1>
ONXGBYGTVMNZKR

> <FragmenterScore>
239.04783393863895

> <NumberPeaksUsed>
22

$$$$

  CDK     0427161240

 14 14  0  0  0  0  0  0  0  0999 V2000
    0.0000    0.0000    0.0000 C   0  0  0  0  0  0  0  0  0  0  0  0
    0.0000    0.0000    0.0000 C   0  0  0  0  0  0  0  0  0  0  0  0
    0.0000    0.0000    0.0000 C   0  0  0  0  0  0  0  0  0  0  0  0
    0.0000    0.0000    0.0000 C   0  0  0  0  0  0  0  0  0  0  0  0
    0.0000    0.0000    0.0000 C   0  0  0  0  0  0  0  0  0  0  0  0
    0.0000    0.0000    0.0000 C   0  0  0  0  0  0  0  0  0  0  0  0
    0.0000    0.0000    0.0000 C   0  0  0  0  0  0  0  0  0  0  0  0
    0.0000    0.0000    0.0000 C   0  0  0  0  0  0  0  0  0  0  0  0
    0.0000    0.0000    0.0000 C   0  0  0  0  0  0  0  0  0  0  0  0
    0.0000    0.0000    0.0000 Cl  0  0  0  0  0  0  0  0  0  0  0  0
    0.0000    0.0000    0.0000 Cl  0  0  0  0  0  0  0  0  0  0  0  0
    0.0000    0.0000    0.0000 Cl  0  0  0  0  0  0  0  0  0  0  0  0
    0.0000    0.0000    0.0000 O   0  0  0  0  0  0  0  0  0  0  0  0
    0.0000    0.0000    0.0000 O   0  0  0  0  0  0  0  0  0  0  0  0
  2  1  1  0  0  0  0 
  5  3  2  0  0  0  0 
  5  4  1  0  0  0  0 
  6  3  1  0  0  0  0 
  7  4  2  0  0  0  0 
  8  1  1  0  0  0  0 
  8  6  1  0  0  0  0 
  9  6  2  0  0  0  0 
  9  7  1  0  0  0  0 
 10  5  1  0  0  0  0 
 11  7  1  0  0  0  0 
 12  9  1  0  0  0  0 
 13  2  1  0  0  0  0 
 14  8  1  0  0  0  0 
M  END
> <NumberPeaksExplained>
2

> <PeaksExplained>
106.94476_274.0;236.96245_999.0

> <FragmentMolecularFormulas>
106.94476:[C3HCl2]+;236.96245:[C9H7Cl3O]+H+

> <Score>
0.1996512881024912

> <XlogP3>
2.6

> <InChI>
InChI=1S/C9H9Cl3O2/c10-5-3-6(8(14)1-2-13)9(12)7(11)4-5/h3-4,8,13-14H,1-2H2

> <FragmenterScore_Values>
1224.0;360.0

> <MaximumTreeDepth>
2

> <MonoisotopicMass>
253.966813

> <CompoundName>
1-(2,3,5-trichlorophenyl)propane-1,3-diol

> <Identifier>
57422174

> <SimScore>
0.347

> <MolecularFormula>
C9H9Cl3O2

> <SMILES>
C1=C(C=C(C(=C1Cl)Cl)C(CCO)O)Cl

> <InChIKey2>
UHFFFAOYSA

> <InChIKey1>
CQZLBRSOWNNENC

> <FragmenterScore>
239.04783393863895

> <NumberPeaksUsed>
22

$$$$

  CDK     0427161240

 14 14  0  0  0  0  0  0  0  0999 V2000
    0.0000    0.0000    0.0000 C   0  0  0  0  0  0  0  0  0  0  0  0
    0.0000    0.0000    0.0000 C   0  0  0  0  0  0  0  0  0  0  0  0
    0.0000    0.0000    0.0000 C   0  0  0  0  0  0  0  0  0  0  0  0
    0.0000    0.0000    0.0000 C   0  0  0  0  0  0  0  0  0  0  0  0
    0.0000    0.0000    0.0000 C   0  0  0  0  0  0  0  0  0  0  0  0
    0.0000    0.0000    0.0000 C   0  0  0  0  0  0  0  0  0  0  0  0
    0.0000    0.0000    0.0000 C   0  0  0  0  0  0  0  0  0  0  0  0
    0.0000    0.0000    0.0000 C   0  0  0  0  0  0  0  0  0  0  0  0
    0.0000    0.0000    0.0000 C   0  0  0  0  0  0  0  0  0  0  0  0
    0.0000    0.0000    0.0000 Cl  0  0  0  0  0  0  0  0  0  0  0  0
    0.0000    0.0000    0.0000 Cl  0  0  0  0  0  0  0  0  0  0  0  0
    0.0000    0.0000    0.0000 Cl  0  0  0  0  0  0  0  0  0  0  0  0
    0.0000    0.0000    0.0000 O   0  0  0  0  0  0  0  0  0  0  0  0
    0.0000    0.0000    0.0000 O   0  0  0  0  0  0  0  0  0  0  0  0
  3  2  2  0  0  0  0 
  4  1  1  0  0  0  0 
  5  1  1  0  0  0  0 
  6  2  1  0  0  0  0 
  7  3  1  0  0  0  0 
  8  6  2  0  0  0  0 
  9  7  2  0  0  0  0 
  9  8  1  0  0  0  0 
 10  6  1  0  0  0  0 
 11  8  1  0  0  0  0 
 12  9  1  0  0  0  0 
 13  4  1  0  0  0  0 
 14  5  1  0  0  0  0 
 14  7  1  0  0  0  0 
M  END
> <NumberPeaksExplained>
2

> <PeaksExplained>
106.94476_274.0;236.96245_999.0

> <FragmentMolecularFormulas>
106.94476:[C3HCl2]+;236.96245:[C9H7Cl3O]+H+

> <Score>
0.1996512881024912

> <XlogP3>
3.4

> <InChI>
InChI=1S/C9H9Cl3O2/c10-6-2-3-7(9(12)8(6)11)14-5-1-4-13/h2-3,13H,1,4-5H2

> <FragmenterScore_Values>
1224.0;360.0

> <MaximumTreeDepth>
2

> <MonoisotopicMass>
253.966813

> <CompoundName>
3-(2,3,4-trichlorophenoxy)propan-1-ol

> <Identifier>
53690720

> <SimScore>
0.347

> <MolecularFormula>
C9H9Cl3O2

> <SMILES>
C1=CC(=C(C(=C1OCCCO)Cl)Cl)Cl

> <InChIKey2>
UHFFFAOYSA

> <InChIKey1>
BNBFWUIGIGHTPA

> <FragmenterScore>
239.04783393863895

> <NumberPeaksUsed>
22

$$$$

  CDK     0427161240

 14 14  0  0  0  0  0  0  0  0999 V2000
    0.0000    0.0000    0.0000 C   0  0  0  0  0  0  0  0  0  0  0  0
    0.0000    0.0000    0.0000 C   0  0  0  0  0  0  0  0  0  0  0  0
    0.0000    0.0000    0.0000 C   0  0  0  0  0  0  0  0  0  0  0  0
    0.0000    0.0000    0.0000 C   0  0  0  0  0  0  0  0  0  0  0  0
    0.0000    0.0000    0.0000 C   0  0  0  0  0  0  0  0  0  0  0  0
    0.0000    0.0000    0.0000 C   0  0  0  0  0  0  0  0  0  0  0  0
    0.0000    0.0000    0.0000 C   0  0  0  0  0  0  0  0  0  0  0  0
    0.0000    0.0000    0.0000 C   0  0  0  0  0  0  0  0  0  0  0  0
    0.0000    0.0000    0.0000 C   0  0  0  0  0  0  0  0  0  0  0  0
    0.0000    0.0000    0.0000 Cl  0  0  0  0  0  0  0  0  0  0  0  0
    0.0000    0.0000    0.0000 Cl  0  0  0  0  0  0  0  0  0  0  0  0
    0.0000    0.0000    0.0000 Cl  0  0  0  0  0  0  0  0  0  0  0  0
    0.0000    0.0000    0.0000 O   0  0  0  0  0  0  0  0  0  0  0  0
    0.0000    0.0000    0.0000 O   0  0  0  0  0  0  0  0  0  0  0  0
  2  1  1  0  0  0  0 
  3  1  1  0  0  0  0 
  6  4  2  0  0  0  0 
  6  5  1  0  0  0  0 
  7  4  1  0  0  0  0 
  8  5  2  0  0  0  0 
  9  7  2  0  0  0  0 
  9  8  1  0  0  0  0 
 10  6  1  0  0  0  0 
 11  7  1  0  0  0  0 
 12  8  1  0  0  0  0 
 13  2  1  0  0  0  0 
 14  3  1  0  0  0  0 
 14  9  1  0  0  0  0 
M  END
> <NumberPeaksExplained>
2

> <PeaksExplained>
106.94476_274.0;236.96245_999.0

> <FragmentMolecularFormulas>
106.94476:[C3HCl2]+;236.96245:[C9H7Cl3O]+H+

> <Score>
0.1996512881024912

> <XlogP3>
3.7

> <InChI>
InChI=1S/C9H9Cl3O2/c10-6-4-7(11)9(8(12)5-6)14-3-1-2-13/h4-5,13H,1-3H2

> <FragmenterScore_Values>
1224.0;360.0

> <MaximumTreeDepth>
2

> <MonoisotopicMass>
253.966813

> <CompoundName>
3-(2,4,6-trichlorophenoxy)propan-1-ol

> <Identifier>
43509905

> <SimScore>
0.347

> <MolecularFormula>
C9H9Cl3O2

> <SMILES>
C1=C(C=C(C(=C1Cl)OCCCO)Cl)Cl

> <InChIKey2>
UHFFFAOYSA

> <InChIKey1>
GOLFWBATSDEDFA

> <FragmenterScore>
239.04783393863895

> <NumberPeaksUsed>
22

$$$$

  CDK     0427161240

 14 14  0  0  0  0  0  0  0  0999 V2000
    0.0000    0.0000    0.0000 C   0  0  0  0  0  0  0  0  0  0  0  0
    0.0000    0.0000    0.0000 C   0  0  0  0  0  0  0  0  0  0  0  0
    0.0000    0.0000    0.0000 C   0  0  0  0  0  0  0  0  0  0  0  0
    0.0000    0.0000    0.0000 C   0  0  0  0  0  0  0  0  0  0  0  0
    0.0000    0.0000    0.0000 C   0  0  0  0  0  0  0  0  0  0  0  0
    0.0000    0.0000    0.0000 C   0  0  0  0  0  0  0  0  0  0  0  0
    0.0000    0.0000    0.0000 C   0  0  0  0  0  0  0  0  0  0  0  0
    0.0000    0.0000    0.0000 C   0  0  0  0  0  0  0  0  0  0  0  0
    0.0000    0.0000    0.0000 C   0  0  0  0  0  0  0  0  0  0  0  0
    0.0000    0.0000    0.0000 Cl  0  0  0  0  0  0  0  0  0  0  0  0
    0.0000    0.0000    0.0000 Cl  0  0  0  0  0  0  0  0  0  0  0  0
    0.0000    0.0000    0.0000 Cl  0  0  0  0  0  0  0  0  0  0  0  0
    0.0000    0.0000    0.0000 O   0  0  0  0  0  0  0  0  0  0  0  0
    0.0000    0.0000    0.0000 O   0  0  0  0  0  0  0  0  0  0  0  0
  2  1  1  0  0  0  0 
  3  1  1  0  0  0  0 
  6  4  2  0  0  0  0 
  7  5  2  0  0  0  0 
  7  6  1  0  0  0  0 
  8  4  1  0  0  0  0 
  9  5  1  0  0  0  0 
  9  8  2  0  0  0  0 
 10  6  1  0  0  0  0 
 11  7  1  0  0  0  0 
 12  8  1  0  0  0  0 
 13  2  1  0  0  0  0 
 14  3  1  0  0  0  0 
 14  9  1  0  0  0  0 
M  END
> <NumberPeaksExplained>
2

> <PeaksExplained>
106.94476_274.0;236.96245_999.0

> <FragmentMolecularFormulas>
106.94476:[C3HCl2]+;236.96245:[C9H7Cl3O]+H+

> <Score>
0.1996512881024912

> <XlogP3>
3.4

> <InChI>
InChI=1S/C9H9Cl3O2/c10-6-4-8(12)9(5-7(6)11)14-3-1-2-13/h4-5,13H,1-3H2

> <FragmenterScore_Values>
1224.0;360.0

> <MaximumTreeDepth>
2

> <MonoisotopicMass>
253.966813

> <CompoundName>
3-(2,4,5-trichlorophenoxy)propan-1-ol

> <Identifier>
43388617

> <SimScore>
0.347

> <MolecularFormula>
C9H9Cl3O2

> <SMILES>
C1=C(C(=CC(=C1Cl)Cl)Cl)OCCCO

> <InChIKey2>
UHFFFAOYSA

> <InChIKey1>
WXMIOPLTEALORP

> <FragmenterScore>
239.04783393863895

> <NumberPeaksUsed>
22

$$$$

  CDK     0427161240

 14 14  0  0  0  0  0  0  0  0999 V2000
    0.0000    0.0000    0.0000 C   0  0  0  0  0  0  0  0  0  0  0  0
    0.0000    0.0000    0.0000 C   0  0  0  0  0  0  0  0  0  0  0  0
    0.0000    0.0000    0.0000 C   0  0  0  0  0  0  0  0  0  0  0  0
    0.0000    0.0000    0.0000 C   0  0  0  0  0  0  0  0  0  0  0  0
    0.0000    0.0000    0.0000 C   0  0  0  0  0  0  0  0  0  0  0  0
    0.0000    0.0000    0.0000 C   0  0  0  0  0  0  0  0  0  0  0  0
    0.0000    0.0000    0.0000 C   0  0  0  0  0  0  0  0  0  0  0  0
    0.0000    0.0000    0.0000 C   0  0  0  0  0  0  0  0  0  0  0  0
    0.0000    0.0000    0.0000 C   0  0  0  0  0  0  0  0  0  0  0  0
    0.0000    0.0000    0.0000 Cl  0  0  0  0  0  0  0  0  0  0  0  0
    0.0000    0.0000    0.0000 Cl  0  0  0  0  0  0  0  0  0  0  0  0
    0.0000    0.0000    0.0000 Cl  0  0  0  0  0  0  0  0  0  0  0  0
    0.0000    0.0000    0.0000 O   0  0  0  0  0  0  0  0  0  0  0  0
    0.0000    0.0000    0.0000 O   0  0  0  0  0  0  0  0  0  0  0  0
  2  1  1  0  0  0  0 
  4  3  2  0  0  0  0 
  5  3  1  0  0  0  0 
  6  4  1  0  0  0  0 
  7  2  1  0  0  0  0 
  8  5  2  0  0  0  0 
  9  6  2  0  0  0  0 
  9  8  1  0  0  0  0 
 10  5  1  0  0  0  0 
 11  8  1  0  0  0  0 
 12  9  1  0  0  0  0 
 13  7  1  0  0  0  0 
 14  6  1  0  0  0  0 
 14  7  1  0  0  0  0 
M  END
> <NumberPeaksExplained>
2

> <PeaksExplained>
106.94476_274.0;236.96245_999.0

> <FragmentMolecularFormulas>
106.94476:[C3HCl2]+;236.96245:[C9H7Cl3O]+H+

> <Score>
0.1996512881024912

> <XlogP3>
4.1

> <InChI>
InChI=1S/C9H9Cl3O2/c1-2-7(13)14-6-4-3-5(10)8(11)9(6)12/h3-4,7,13H,2H2,1H3

> <FragmenterScore_Values>
1224.0;360.0

> <MaximumTreeDepth>
2

> <MonoisotopicMass>
253.966813

> <CompoundName>
1-(2,3,4-trichlorophenoxy)propan-1-ol

> <Identifier>
19870037

> <SimScore>
0.347

> <MolecularFormula>
C9H9Cl3O2

> <SMILES>
CCC(O)OC1=C(C(=C(C=C1)Cl)Cl)Cl

> <InChIKey2>
UHFFFAOYSA

> <InChIKey1>
YVLGCZHIZCWJMT

> <FragmenterScore>
239.04783393863895

> <NumberPeaksUsed>
22

$$$$

  CDK     0427161240

 14 14  0  0  0  0  0  0  0  0999 V2000
    0.0000    0.0000    0.0000 C   0  0  0  0  0  0  0  0  0  0  0  0
    0.0000    0.0000    0.0000 C   0  0  0  0  0  0  0  0  0  0  0  0
    0.0000    0.0000    0.0000 C   0  0  0  0  0  0  0  0  0  0  0  0
    0.0000    0.0000    0.0000 C   0  0  0  0  0  0  0  0  0  0  0  0
    0.0000    0.0000    0.0000 C   0  0  0  0  0  0  0  0  0  0  0  0
    0.0000    0.0000    0.0000 C   0  0  0  0  0  0  0  0  0  0  0  0
    0.0000    0.0000    0.0000 C   0  0  0  0  0  0  0  0  0  0  0  0
    0.0000    0.0000    0.0000 C   0  0  0  0  0  0  0  0  0  0  0  0
    0.0000    0.0000    0.0000 C   0  0  0  0  0  0  0  0  0  0  0  0
    0.0000    0.0000    0.0000 Cl  0  0  0  0  0  0  0  0  0  0  0  0
    0.0000    0.0000    0.0000 Cl  0  0  0  0  0  0  0  0  0  0  0  0
    0.0000    0.0000    0.0000 Cl  0  0  0  0  0  0  0  0  0  0  0  0
    0.0000    0.0000    0.0000 O   0  0  0  0  0  0  0  0  0  0  0  0
    0.0000    0.0000    0.0000 O   0  0  0  0  0  0  0  0  0  0  0  0
  2  1  2  0  0  0  0 
  6  1  1  0  0  0  0 
  6  3  2  0  0  0  0 
  7  4  1  0  0  0  0 
  7  5  1  0  0  0  0 
  8  3  1  0  0  0  0 
  9  2  1  0  0  0  0 
  9  8  2  0  0  0  0 
 10  4  1  0  0  0  0 
 11  6  1  0  0  0  0 
 12  8  1  0  0  0  0 
 13  7  1  0  0  0  0 
 14  5  1  0  0  0  0 
 14  9  1  0  0  0  0 
M  END
> <NumberPeaksExplained>
2

> <PeaksExplained>
106.94476_274.0;236.96245_999.0

> <FragmentMolecularFormulas>
106.94476:[C3HCl2]+;236.96245:[C9H7Cl3O]+H+

> <Score>
0.1996512881024912

> <XlogP3>
3.6

> <InChI>
InChI=1S/C9H9Cl3O2/c10-4-7(13)5-14-9-2-1-6(11)3-8(9)12/h1-3,7,13H,4-5H2

> <FragmenterScore_Values>
1224.0;360.0

> <MaximumTreeDepth>
2

> <MonoisotopicMass>
253.966813

> <CompoundName>
1-chloro-3-(2,4-dichlorophenoxy)propan-2-ol

> <Identifier>
12468709

> <SimScore>
0.347

> <MolecularFormula>
C9H9Cl3O2

> <SMILES>
C1=CC(=C(C=C1Cl)Cl)OCC(CCl)O

> <InChIKey2>
UHFFFAOYSA

> <InChIKey1>
DYTNGLYMKIMHKL

> <FragmenterScore>
239.04783393863895

> <NumberPeaksUsed>
22

$$$$

  CDK     0427161240

 14 14  0  0  0  0  0  0  0  0999 V2000
    0.0000    0.0000    0.0000 C   0  0  0  0  0  0  0  0  0  0  0  0
    0.0000    0.0000    0.0000 C   0  0  0  0  0  0  0  0  0  0  0  0
    0.0000    0.0000    0.0000 C   0  0  0  0  0  0  0  0  0  0  0  0
    0.0000    0.0000    0.0000 C   0  0  0  0  0  0  0  0  0  0  0  0
    0.0000    0.0000    0.0000 C   0  0  0  0  0  0  0  0  0  0  0  0
    0.0000    0.0000    0.0000 C   0  0  0  0  0  0  0  0  0  0  0  0
    0.0000    0.0000    0.0000 C   0  0  0  0  0  0  0  0  0  0  0  0
    0.0000    0.0000    0.0000 C   0  0  0  0  0  0  0  0  0  0  0  0
    0.0000    0.0000    0.0000 C   0  0  0  0  0  0  0  0  0  0  0  0
    0.0000    0.0000    0.0000 Cl  0  0  0  0  0  0  0  0  0  0  0  0
    0.0000    0.0000    0.0000 Cl  0  0  0  0  0  0  0  0  0  0  0  0
    0.0000    0.0000    0.0000 Cl  0  0  0  0  0  0  0  0  0  0  0  0
    0.0000    0.0000    0.0000 O   0  0  0  0  0  0  0  0  0  0  0  0
    0.0000    0.0000    0.0000 O   0  0  0  0  0  0  0  0  0  0  0  0
  5  1  1  0  0  0  0 
  5  4  1  0  0  0  0 
  6  2  2  0  0  0  0 
  7  3  2  0  0  0  0 
  7  6  1  0  0  0  0 
  8  2  1  0  0  0  0 
  9  3  1  0  0  0  0 
  9  8  2  0  0  0  0 
 10  6  1  0  0  0  0 
 11  7  1  0  0  0  0 
 12  8  1  0  0  0  0 
 13  4  1  0  0  0  0 
 14  5  1  0  0  0  0 
 14  9  1  0  0  0  0 
M  END
> <NumberPeaksExplained>
2

> <PeaksExplained>
106.94476_274.0;236.96245_999.0

> <FragmentMolecularFormulas>
106.94476:[C3HCl2]+;236.96245:[C9H7Cl3O]+H+

> <Score>
0.1996512881024912

> <XlogP3>
3.5

> <InChI>
InChI=1S/C9H9Cl3O2/c1-5(4-13)14-9-3-7(11)6(10)2-8(9)12/h2-3,5,13H,4H2,1H3

> <FragmenterScore_Values>
1224.0;360.0

> <MaximumTreeDepth>
2

> <MonoisotopicMass>
253.966813

> <CompoundName>
2-(2,4,5-trichlorophenoxy)propan-1-ol

> <Identifier>
517034

> <SimScore>
0.347

> <MolecularFormula>
C9H9Cl3O2

> <SMILES>
CC(CO)OC1=CC(=C(C=C1Cl)Cl)Cl

> <InChIKey2>
UHFFFAOYSA

> <InChIKey1>
LYJSRGNYLMKMOP

> <FragmenterScore>
239.04783393863895

> <NumberPeaksUsed>
22

$$$$

  CDK     0427161240

 14 14  0  0  0  0  0  0  0  0999 V2000
    0.0000    0.0000    0.0000 C   0  0  0  0  0  0  0  0  0  0  0  0
    0.0000    0.0000    0.0000 C   0  0  0  0  0  0  0  0  0  0  0  0
    0.0000    0.0000    0.0000 C   0  0  0  0  0  0  0  0  0  0  0  0
    0.0000    0.0000    0.0000 C   0  0  0  0  0  0  0  0  0  0  0  0
    0.0000    0.0000    0.0000 C   0  0  0  0  0  0  0  0  0  0  0  0
    0.0000    0.0000    0.0000 C   0  0  0  0  0  0  0  0  0  0  0  0
    0.0000    0.0000    0.0000 C   0  0  0  0  0  0  0  0  0  0  0  0
    0.0000    0.0000    0.0000 C   0  0  0  0  0  0  0  0  0  0  0  0
    0.0000    0.0000    0.0000 C   0  0  0  0  0  0  0  0  0  0  0  0
    0.0000    0.0000    0.0000 Cl  0  0  0  0  0  0  0  0  0  0  0  0
    0.0000    0.0000    0.0000 Cl  0  0  0  0  0  0  0  0  0  0  0  0
    0.0000    0.0000    0.0000 Cl  0  0  0  0  0  0  0  0  0  0  0  0
    0.0000    0.0000    0.0000 O   0  0  0  0  0  0  0  0  0  0  0  0
    0.0000    0.0000    0.0000 O   0  0  0  0  0  0  0  0  0  0  0  0
  3  2  2  0  0  0  0 
  6  2  1  0  0  0  0 
  6  5  1  0  0  0  0 
  7  3  1  0  0  0  0 
  7  4  2  0  0  0  0 
  8  4  1  0  0  0  0 
  8  6  2  0  0  0  0 
  9  8  1  0  0  0  0 
 10  9  1  0  0  0  0 
 11  9  1  0  0  0  0 
 12  9  1  0  0  0  0 
 13  5  1  0  0  0  0 
 14  1  1  0  0  0  0 
 14  7  1  0  0  0  0 
M  END
> <NumberPeaksExplained>
2

> <PeaksExplained>
106.94476_274.0;236.96245_999.0

> <FragmentMolecularFormulas>
106.94476:[C3HCl2]+;236.96245:[C9H7Cl3O]+H+

> <Score>
0.19841469145259383

> <XlogP3>
2.6

> <InChI>
InChI=1S/C9H9Cl3O2/c1-14-7-3-2-6(5-13)8(4-7)9(10,11)12/h2-4,13H,5H2,1H3

> <FragmenterScore_Values>
1562.0;360.0

> <MaximumTreeDepth>
2

> <MonoisotopicMass>
253.966813

> <CompoundName>
[4-methoxy-2-(trichloromethyl)phenyl]methanol

> <Identifier>
54006996

> <SimScore>
0.347

> <MolecularFormula>
C9H9Cl3O2

> <SMILES>
COC1=CC(=C(C=C1)CO)C(Cl)(Cl)Cl

> <InChIKey2>
UHFFFAOYSA

> <InChIKey1>
KPPCVICCXYWUGV

> <FragmenterScore>
237.56722365346016

> <NumberPeaksUsed>
22

$$$$

  CDK     0427161240

 14 14  0  0  0  0  0  0  0  0999 V2000
    0.0000    0.0000    0.0000 C   0  0  0  0  0  0  0  0  0  0  0  0
    0.0000    0.0000    0.0000 C   0  0  0  0  0  0  0  0  0  0  0  0
    0.0000    0.0000    0.0000 C   0  0  0  0  0  0  0  0  0  0  0  0
    0.0000    0.0000    0.0000 C   0  0  0  0  0  0  0  0  0  0  0  0
    0.0000    0.0000    0.0000 C   0  0  0  0  0  0  0  0  0  0  0  0
    0.0000    0.0000    0.0000 C   0  0  0  0  0  0  0  0  0  0  0  0
    0.0000    0.0000    0.0000 C   0  0  0  0  0  0  0  0  0  0  0  0
    0.0000    0.0000    0.0000 C   0  0  0  0  0  0  0  0  0  0  0  0
    0.0000    0.0000    0.0000 C   0  0  0  0  0  0  0  0  0  0  0  0
    0.0000    0.0000    0.0000 Cl  0  0  0  0  0  0  0  0  0  0  0  0
    0.0000    0.0000    0.0000 Cl  0  0  0  0  0  0  0  0  0  0  0  0
    0.0000    0.0000    0.0000 Cl  0  0  0  0  0  0  0  0  0  0  0  0
    0.0000    0.0000    0.0000 O   0  0  0  0  0  0  0  0  0  0  0  0
    0.0000    0.0000    0.0000 O   0  0  0  0  0  0  0  0  0  0  0  0
  4  1  1  0  0  0  0 
  5  2  1  0  0  0  0 
  6  3  1  0  0  0  0 
  7  4  2  0  0  0  0 
  7  5  1  0  0  0  0 
  8  4  1  0  0  0  0 
  8  6  2  0  0  0  0 
  9  5  2  0  0  0  0 
  9  6  1  0  0  0  0 
 10  7  1  0  0  0  0 
 11  8  1  0  0  0  0 
 12  9  1  0  0  0  0 
 13  2  1  0  0  0  0 
 14  3  1  0  0  0  0 
M  END
> <NumberPeaksExplained>
2

> <PeaksExplained>
106.94476_274.0;236.96245_999.0

> <FragmentMolecularFormulas>
106.94476:[C3Cl2]+H+;236.96245:[C9H7Cl3O]+H+

> <Score>
0.1983841931770918

> <XlogP3>
2.4

> <InChI>
InChI=1S/C9H9Cl3O2/c1-4-7(10)5(2-13)9(12)6(3-14)8(4)11/h13-14H,2-3H2,1H3

> <FragmenterScore_Values>
1572.0;360.0

> <MaximumTreeDepth>
2

> <MonoisotopicMass>
253.966813

> <CompoundName>
[2,4,6-trichloro-3-(hydroxymethyl)-5-methyl-phenyl]methanol

> <Identifier>
85914454

> <SimScore>
0.347

> <MolecularFormula>
C9H9Cl3O2

> <SMILES>
CC1=C(C(=C(C(=C1Cl)CO)Cl)CO)Cl

> <InChIKey2>
UHFFFAOYSA

> <InChIKey1>
ZDGSOZMZZINYJI

> <FragmenterScore>
237.53070725145287

> <NumberPeaksUsed>
22

$$$$

  CDK     0427161240

 15 15  0  0  0  0  0  0  0  0999 V2000
    0.0000    0.0000    0.0000 C   0  0  0  0  0  0  0  0  0  0  0  0
    0.0000    0.0000    0.0000 C   0  0  0  0  0  0  0  0  0  0  0  0
    0.0000    0.0000    0.0000 C   0  0  0  0  0  0  0  0  0  0  0  0
    0.0000    0.0000    0.0000 C   0  0  0  0  0  0  0  0  0  0  0  0
    0.0000    0.0000    0.0000 C   0  0  0  0  0  0  0  0  0  0  0  0
    0.0000    0.0000    0.0000 C   0  0  0  0  0  0  0  0  0  0  0  0
    0.0000    0.0000    0.0000 O   0  0  0  0  0  0  0  0  0  0  0  0
    0.0000    0.0000    0.0000 O   0  0  0  0  0  0  0  0  0  0  0  0
    0.0000    0.0000    0.0000 O   0  0  0  0  0  0  0  0  0  0  0  0
    0.0000    0.0000    0.0000 O   0  0  0  0  0  0  0  0  0  0  0  0
    0.0000    0.0000    0.0000 O   0  0  0  0  0  0  0  0  0  0  0  0
    0.0000    0.0000    0.0000 O   0  0  0  0  0  0  0  0  0  0  0  0
    0.0000    0.0000    0.0000 O   0  0  0  0  0  0  0  0  0  0  0  0
    0.0000    0.0000    0.0000 P   0  0  0  0  0  0  0  0  0  0  0  0
    0.0000    0.0000    0.0000 S   0  0  0  0  0  0  0  0  0  0  0  0
  2  1  2  0  0  0  0 
  3  1  1  0  0  0  0 
  4  2  1  0  0  0  0 
  5  3  2  0  0  0  0 
  6  4  2  0  0  0  0 
  6  5  1  0  0  0  0 
 12  6  1  0  0  0  0 
 14  7  1  0  0  0  0 
 14  8  2  0  0  0  0 
 14 12  1  0  0  0  0 
 14 13  1  0  0  0  0 
 15  9  1  0  0  0  0 
 15 10  2  0  0  0  0 
 15 11  2  0  0  0  0 
 15 13  1  0  0  0  0 
M  END
> <NumberPeaksExplained>
1

> <PeaksExplained>
236.96245_999.0

> <FragmentMolecularFormulas>
236.96245:[C6H5O6PS]+H+

> <Score>
0.19470753567324633

> <XlogP3>
-0.1

> <InChI>
InChI=1S/C6H7O7PS/c7-14(8,13-15(9,10)11)12-6-4-2-1-3-5-6/h1-5H,(H,7,8)(H,9,10,11)

> <FragmenterScore_Values>
335.0

> <MaximumTreeDepth>
2

> <MonoisotopicMass>
253.96501

> <CompoundName>
phenyl sulfo hydrogen phosphate

> <Identifier>
12759510

> <SimScore>
0.3346

> <MolecularFormula>
C6H7O7PS

> <SMILES>
C1=CC=C(C=C1)OP(=O)(O)OS(=O)(=O)O

> <InChIKey2>
UHFFFAOYSA

> <InChIKey1>
NJYNKBHAEPIJFT

> <FragmenterScore>
233.12854676062088

> <NumberPeaksUsed>
22

$$$$

  CDK     0427161240

 13 13  0  0  0  0  0  0  0  0999 V2000
    0.0000    0.0000    0.0000 C   0  0  0  0  0  0  0  0  0  0  0  0
    0.0000    0.0000    0.0000 C   0  0  0  0  0  0  0  0  0  0  0  0
    0.0000    0.0000    0.0000 C   0  0  0  0  0  0  0  0  0  0  0  0
    0.0000    0.0000    0.0000 C   0  0  0  0  0  0  0  0  0  0  0  0
    0.0000    0.0000    0.0000 C   0  0  0  0  0  0  0  0  0  0  0  0
    0.0000    0.0000    0.0000 C   0  0  0  0  0  0  0  0  0  0  0  0
    0.0000    0.0000    0.0000 C   0  0  0  0  0  0  0  0  0  0  0  0
    0.0000    0.0000    0.0000 Cl  0  0  0  0  0  0  0  0  0  0  0  0
    0.0000    0.0000    0.0000 O   0  0  0  0  0  0  0  0  0  0  0  0
    0.0000    0.0000    0.0000 O   0  0  0  0  0  0  0  0  0  0  0  0
    0.0000    0.0000    0.0000 S   0  0  0  0  0  0  0  0  0  0  0  0
    0.0000    0.0000    0.0000 S   0  0  0  0  0  0  0  0  0  0  0  0
    0.0000    0.0000    0.0000 Si  0  0  0  0  0  0  0  0  0  0  0  0
  5  4  1  0  0  0  0 
  6  4  2  0  0  0  0 
  7  5  2  0  0  0  0 
  8  5  1  0  0  0  0 
 11  6  1  0  0  0  0 
 11  7  1  0  0  0  0 
 12  6  1  0  0  0  0 
 12  9  1  0  0  0  0 
 12 10  2  0  0  0  0 
 13  1  1  0  0  0  0 
 13  2  1  0  0  0  0 
 13  3  1  0  0  0  0 
 13  7  1  0  0  0  0 
M  END
> <NumberPeaksExplained>
1

> <PeaksExplained>
236.96245_999.0

> <FragmentMolecularFormulas>
236.96245:[C7H9ClOS2Si]+H+

> <Score>
0.191254461419035

> <XlogP3>
NA

> <InChI>
InChI=1S/C7H11ClO2S2Si/c1-13(2,3)7-5(8)4-6(11-7)12(9)10/h4H,1-3H3,(H,9,10)

> <FragmenterScore_Values>
348.0

> <MaximumTreeDepth>
2

> <MonoisotopicMass>
253.965826

> <CompoundName>
4-chloro-5-trimethylsilyl-thiophene-2-sulfinic acid

> <Identifier>
70086559

> <SimScore>
0.3346

> <MolecularFormula>
C7H11ClO2S2Si

> <SMILES>
C[Si](C)(C)C1=C(C=C(S1)S(=O)O)Cl

> <InChIKey2>
UHFFFAOYSA

> <InChIKey1>
IRUARGGCYXEULJ

> <FragmenterScore>
228.99408848217112

> <NumberPeaksUsed>
22

$$$$

  CDK     0427161240

 14 14  0  0  0  0  0  0  0  0999 V2000
    0.0000    0.0000    0.0000 C   0  0  0  0  0  0  0  0  0  0  0  0
    0.0000    0.0000    0.0000 C   0  0  0  0  0  0  0  0  0  0  0  0
    0.0000    0.0000    0.0000 C   0  0  0  0  0  0  0  0  0  0  0  0
    0.0000    0.0000    0.0000 C   0  0  0  0  0  0  0  0  0  0  0  0
    0.0000    0.0000    0.0000 C   0  0  0  0  0  0  0  0  0  0  0  0
    0.0000    0.0000    0.0000 C   0  0  0  0  0  0  0  0  0  0  0  0
    0.0000    0.0000    0.0000 C   0  0  0  0  0  0  0  0  0  0  0  0
    0.0000    0.0000    0.0000 C   0  0  0  0  0  0  0  0  0  0  0  0
    0.0000    0.0000    0.0000 C   0  0  0  0  0  0  0  0  0  0  0  0
    0.0000    0.0000    0.0000 Cl  0  0  0  0  0  0  0  0  0  0  0  0
    0.0000    0.0000    0.0000 Cl  0  0  0  0  0  0  0  0  0  0  0  0
    0.0000    0.0000    0.0000 Cl  0  0  0  0  0  0  0  0  0  0  0  0
    0.0000    0.0000    0.0000 O   0  0  0  0  0  0  0  0  0  0  0  0
    0.0000    0.0000    0.0000 O   0  0  0  0  0  0  0  0  0  0  0  0
  5  1  1  0  0  0  0 
  5  3  1  0  0  0  0 
  5  4  2  0  0  0  0 
  6  3  2  0  0  0  0 
  7  6  1  0  0  0  0 
  9  2  1  0  0  0  0 
  9  4  1  0  0  0  0 
  9  7  1  0  0  0  0 
 10  7  1  0  0  0  0 
 11  8  1  0  0  0  0 
 12  9  1  0  0  0  0 
 13  8  2  0  0  0  0 
 14  6  1  0  0  0  0 
 14  8  1  0  0  0  0 
M  END
> <NumberPeaksExplained>
3

> <PeaksExplained>
106.94476_274.0;163.00682_782.0;236.96245_999.0

> <FragmentMolecularFormulas>
106.94476:[C3H2Cl2-H]+;163.00682:[C7H6Cl2+2H]+H+;236.96245:[C9H9Cl3O-H]+

> <Score>
0.18986431548589866

> <XlogP3>
3.1

> <InChI>
InChI=1S/C9H9Cl3O2/c1-5-3-6(14-8(11)13)7(10)9(2,12)4-5/h3-4,7H,1-2H3

> <FragmenterScore_Values>
1408.0;843.0;908.0

> <MaximumTreeDepth>
2

> <MonoisotopicMass>
253.966813

> <CompoundName>
(5,6-dichloro-3,5-dimethyl-cyclohexa-1,3-dien-1-yl) carbonochloridate

> <Identifier>
21386909

> <SimScore>
0.4347

> <MolecularFormula>
C9H9Cl3O2

> <SMILES>
CC1=CC(C(C(=C1)OC(=O)Cl)Cl)(C)Cl

> <InChIKey2>
UHFFFAOYSA

> <InChIKey1>
LWKAQFMGFICQQC

> <FragmenterScore>
227.3296295280959

> <NumberPeaksUsed>
22

$$$$

  CDK     0427161240

 14 14  0  0  0  0  0  0  0  0999 V2000
    0.0000    0.0000    0.0000 C   0  0  0  0  0  0  0  0  0  0  0  0
    0.0000    0.0000    0.0000 C   0  0  0  0  0  0  0  0  0  0  0  0
    0.0000    0.0000    0.0000 C   0  0  0  0  0  0  0  0  0  0  0  0
    0.0000    0.0000    0.0000 C   0  0  0  0  0  0  0  0  0  0  0  0
    0.0000    0.0000    0.0000 C   0  0  0  0  0  0  0  0  0  0  0  0
    0.0000    0.0000    0.0000 C   0  0  0  0  0  0  0  0  0  0  0  0
    0.0000    0.0000    0.0000 C   0  0  0  0  0  0  0  0  0  0  0  0
    0.0000    0.0000    0.0000 C   0  0  0  0  0  0  0  0  0  0  0  0
    0.0000    0.0000    0.0000 C   0  0  0  0  0  0  0  0  0  0  0  0
    0.0000    0.0000    0.0000 Cl  0  0  0  0  0  0  0  0  0  0  0  0
    0.0000    0.0000    0.0000 Cl  0  0  0  0  0  0  0  0  0  0  0  0
    0.0000    0.0000    0.0000 Cl  0  0  0  0  0  0  0  0  0  0  0  0
    0.0000    0.0000    0.0000 O   0  0  0  0  0  0  0  0  0  0  0  0
    0.0000    0.0000    0.0000 O   0  0  0  0  0  0  0  0  0  0  0  0
  2  1  2  0  0  0  0 
  3  1  1  0  0  0  0 
  4  2  1  0  0  0  0 
  5  3  2  0  0  0  0 
  7  4  2  0  0  0  0 
  7  5  1  0  0  0  0 
  8  6  1  0  0  0  0 
  8  7  1  0  0  0  0 
  9  8  1  0  0  0  0 
 10  9  1  0  0  0  0 
 11  9  1  0  0  0  0 
 12  9  1  0  0  0  0 
 13  6  1  0  0  0  0 
 14  8  1  0  0  0  0 
M  END
> <NumberPeaksExplained>
1

> <PeaksExplained>
236.96245_999.0

> <FragmentMolecularFormulas>
236.96245:[C9H7Cl3O]+H+

> <Score>
0.18823121436828105

> <XlogP3>
2.1

> <InChI>
InChI=1S/C9H9Cl3O2/c10-9(11,12)8(14,6-13)7-4-2-1-3-5-7/h1-5,13-14H,6H2

> <FragmenterScore_Values>
360.0

> <MaximumTreeDepth>
2

> <MonoisotopicMass>
253.966813

> <CompoundName>
3,3,3-trichloro-2-phenyl-propane-1,2-diol

> <Identifier>
90860075

> <SimScore>
0.3346

> <MolecularFormula>
C9H9Cl3O2

> <SMILES>
C1=CC=C(C=C1)C(CO)(C(Cl)(Cl)Cl)O

> <InChIKey2>
UHFFFAOYSA

> <InChIKey1>
UTVMFZKXDFFGFL

> <FragmenterScore>
225.37427382526238

> <NumberPeaksUsed>
22

$$$$

  CDK     0427161240

 14 14  0  0  0  0  0  0  0  0999 V2000
    0.0000    0.0000    0.0000 C   0  0  0  0  0  0  0  0  0  0  0  0
    0.0000    0.0000    0.0000 C   0  0  0  0  0  0  0  0  0  0  0  0
    0.0000    0.0000    0.0000 C   0  0  0  0  0  0  0  0  0  0  0  0
    0.0000    0.0000    0.0000 C   0  0  0  0  0  0  0  0  0  0  0  0
    0.0000    0.0000    0.0000 C   0  0  0  0  0  0  0  0  0  0  0  0
    0.0000    0.0000    0.0000 C   0  0  0  0  0  0  0  0  0  0  0  0
    0.0000    0.0000    0.0000 C   0  0  0  0  0  0  0  0  0  0  0  0
    0.0000    0.0000    0.0000 C   0  0  0  0  0  0  0  0  0  0  0  0
    0.0000    0.0000    0.0000 C   0  0  0  0  0  0  0  0  0  0  0  0
    0.0000    0.0000    0.0000 Cl  0  0  0  0  0  0  0  0  0  0  0  0
    0.0000    0.0000    0.0000 Cl  0  0  0  0  0  0  0  0  0  0  0  0
    0.0000    0.0000    0.0000 Cl  0  0  0  0  0  0  0  0  0  0  0  0
    0.0000    0.0000    0.0000 O   0  0  0  0  0  0  0  0  0  0  0  0
    0.0000    0.0000    0.0000 O   0  0  0  0  0  0  0  0  0  0  0  0
  2  1  2  0  0  0  0 
  3  1  1  0  0  0  0 
  4  2  1  0  0  0  0 
  5  3  2  0  0  0  0 
  7  4  2  0  0  0  0 
  7  5  1  0  0  0  0 
  7  6  1  0  0  0  0 
  9  8  1  0  0  0  0 
 10  9  1  0  0  0  0 
 11  9  1  0  0  0  0 
 12  9  1  0  0  0  0 
 13  8  1  0  0  0  0 
 14  6  1  0  0  0  0 
 14  8  1  0  0  0  0 
M  END
> <NumberPeaksExplained>
1

> <PeaksExplained>
236.96245_999.0

> <FragmentMolecularFormulas>
236.96245:[C9H7Cl3O]+H+

> <Score>
0.18823121436828105

> <XlogP3>
2.9

> <InChI>
InChI=1S/C9H9Cl3O2/c10-9(11,12)8(13)14-6-7-4-2-1-3-5-7/h1-5,8,13H,6H2

> <FragmenterScore_Values>
360.0

> <MaximumTreeDepth>
2

> <MonoisotopicMass>
253.966813

> <CompoundName>
1-benzyloxy-2,2,2-trichloro-ethanol

> <Identifier>
85797223

> <SimScore>
0.3346

> <MolecularFormula>
C9H9Cl3O2

> <SMILES>
C1=CC=C(C=C1)COC(C(Cl)(Cl)Cl)O

> <InChIKey2>
UHFFFAOYSA

> <InChIKey1>
GNMCQEKACXEFFJ

> <FragmenterScore>
225.37427382526238

> <NumberPeaksUsed>
22

$$$$

  CDK     0427161240

 14 14  0  0  0  0  0  0  0  0999 V2000
    0.0000    0.0000    0.0000 C   0  0  0  0  0  0  0  0  0  0  0  0
    0.0000    0.0000    0.0000 C   0  0  0  0  0  0  0  0  0  0  0  0
    0.0000    0.0000    0.0000 C   0  0  0  0  0  0  0  0  0  0  0  0
    0.0000    0.0000    0.0000 C   0  0  0  0  0  0  0  0  0  0  0  0
    0.0000    0.0000    0.0000 C   0  0  0  0  0  0  0  0  0  0  0  0
    0.0000    0.0000    0.0000 C   0  0  0  0  0  0  0  0  0  0  0  0
    0.0000    0.0000    0.0000 C   0  0  0  0  0  0  0  0  0  0  0  0
    0.0000    0.0000    0.0000 C   0  0  0  0  0  0  0  0  0  0  0  0
    0.0000    0.0000    0.0000 C   0  0  0  0  0  0  0  0  0  0  0  0
    0.0000    0.0000    0.0000 Cl  0  0  0  0  0  0  0  0  0  0  0  0
    0.0000    0.0000    0.0000 Cl  0  0  0  0  0  0  0  0  0  0  0  0
    0.0000    0.0000    0.0000 Cl  0  0  0  0  0  0  0  0  0  0  0  0
    0.0000    0.0000    0.0000 O   0  0  0  0  0  0  0  0  0  0  0  0
    0.0000    0.0000    0.0000 O   0  0  0  0  0  0  0  0  0  0  0  0
  3  2  2  0  0  0  0 
  4  2  1  0  0  0  0 
  6  1  1  0  0  0  0 
  6  3  1  0  0  0  0 
  6  5  2  0  0  0  0 
  7  4  2  0  0  0  0 
  7  5  1  0  0  0  0 
  9  8  1  0  0  0  0 
 10  9  1  0  0  0  0 
 11  9  1  0  0  0  0 
 12  9  1  0  0  0  0 
 13  8  1  0  0  0  0 
 14  7  1  0  0  0  0 
 14  8  1  0  0  0  0 
M  END
> <NumberPeaksExplained>
1

> <PeaksExplained>
236.96245_999.0

> <FragmentMolecularFormulas>
236.96245:[C9H7Cl3O]+H+

> <Score>
0.18823121436828105

> <XlogP3>
4.0

> <InChI>
InChI=1S/C9H9Cl3O2/c1-6-3-2-4-7(5-6)14-8(13)9(10,11)12/h2-5,8,13H,1H3

> <FragmenterScore_Values>
360.0

> <MaximumTreeDepth>
2

> <MonoisotopicMass>
253.966813

> <CompoundName>
2,2,2-trichloro-1-(3-methylphenoxy)ethanol

> <Identifier>
71374232

> <SimScore>
0.3346

> <MolecularFormula>
C9H9Cl3O2

> <SMILES>
CC1=CC(=CC=C1)OC(C(Cl)(Cl)Cl)O

> <InChIKey2>
UHFFFAOYSA

> <InChIKey1>
NGIBCHAXQCCFFE

> <FragmenterScore>
225.37427382526238

> <NumberPeaksUsed>
22

$$$$

  CDK     0427161240

 14 14  0  0  0  0  0  0  0  0999 V2000
    0.0000    0.0000    0.0000 C   0  0  0  0  0  0  0  0  0  0  0  0
    0.0000    0.0000    0.0000 C   0  0  0  0  0  0  0  0  0  0  0  0
    0.0000    0.0000    0.0000 C   0  0  0  0  0  0  0  0  0  0  0  0
    0.0000    0.0000    0.0000 C   0  0  0  0  0  0  0  0  0  0  0  0
    0.0000    0.0000    0.0000 C   0  0  0  0  0  0  0  0  0  0  0  0
    0.0000    0.0000    0.0000 C   0  0  0  0  0  0  0  0  0  0  0  0
    0.0000    0.0000    0.0000 C   0  0  0  0  0  0  0  0  0  0  0  0
    0.0000    0.0000    0.0000 C   0  0  0  0  0  0  0  0  0  0  0  0
    0.0000    0.0000    0.0000 C   0  0  0  0  0  0  0  0  0  0  0  0
    0.0000    0.0000    0.0000 Cl  0  0  0  0  0  0  0  0  0  0  0  0
    0.0000    0.0000    0.0000 Cl  0  0  0  0  0  0  0  0  0  0  0  0
    0.0000    0.0000    0.0000 Cl  0  0  0  0  0  0  0  0  0  0  0  0
    0.0000    0.0000    0.0000 O   0  0  0  0  0  0  0  0  0  0  0  0
    0.0000    0.0000    0.0000 O   0  0  0  0  0  0  0  0  0  0  0  0
  3  2  2  0  0  0  0 
  4  2  1  0  0  0  0 
  5  3  1  0  0  0  0 
  6  4  2  0  0  0  0 
  7  5  2  0  0  0  0 
  7  6  1  0  0  0  0 
  8  1  1  0  0  0  0 
  9  8  1  0  0  0  0 
 10  8  1  0  0  0  0 
 11  9  1  0  0  0  0 
 12  9  1  0  0  0  0 
 13  9  1  0  0  0  0 
 14  7  1  0  0  0  0 
 14  8  1  0  0  0  0 
M  END
> <NumberPeaksExplained>
1

> <PeaksExplained>
236.96245_999.0

> <FragmentMolecularFormulas>
236.96245:[C9H7Cl3O]+H+

> <Score>
0.18823121436828105

> <XlogP3>
3.4

> <InChI>
InChI=1S/C9H9Cl3O2/c1-8(10,9(11,12)13)14-7-5-3-2-4-6-7/h2-6,13H,1H3

> <FragmenterScore_Values>
360.0

> <MaximumTreeDepth>
2

> <MonoisotopicMass>
253.966813

> <CompoundName>
1,1,2-trichloro-2-phenoxy-propan-1-ol

> <Identifier>
70552192

> <SimScore>
0.3346

> <MolecularFormula>
C9H9Cl3O2

> <SMILES>
CC(C(O)(Cl)Cl)(OC1=CC=CC=C1)Cl

> <InChIKey2>
UHFFFAOYSA

> <InChIKey1>
QHFRRWJWPHSEJU

> <FragmenterScore>
225.37427382526238

> <NumberPeaksUsed>
22

$$$$

  CDK     0427161240

 14 14  0  0  0  0  0  0  0  0999 V2000
    0.0000    0.0000    0.0000 C   0  0  0  0  0  0  0  0  0  0  0  0
    0.0000    0.0000    0.0000 C   0  0  0  0  0  0  0  0  0  0  0  0
    0.0000    0.0000    0.0000 C   0  0  0  0  0  0  0  0  0  0  0  0
    0.0000    0.0000    0.0000 C   0  0  0  0  0  0  0  0  0  0  0  0
    0.0000    0.0000    0.0000 C   0  0  0  0  0  0  0  0  0  0  0  0
    0.0000    0.0000    0.0000 C   0  0  0  0  0  0  0  0  0  0  0  0
    0.0000    0.0000    0.0000 C   0  0  0  0  0  0  0  0  0  0  0  0
    0.0000    0.0000    0.0000 C   0  0  0  0  0  0  0  0  0  0  0  0
    0.0000    0.0000    0.0000 C   0  0  0  0  0  0  0  0  0  0  0  0
    0.0000    0.0000    0.0000 Cl  0  0  0  0  0  0  0  0  0  0  0  0
    0.0000    0.0000    0.0000 Cl  0  0  0  0  0  0  0  0  0  0  0  0
    0.0000    0.0000    0.0000 Cl  0  0  0  0  0  0  0  0  0  0  0  0
    0.0000    0.0000    0.0000 O   0  0  0  0  0  0  0  0  0  0  0  0
    0.0000    0.0000    0.0000 O   0  0  0  0  0  0  0  0  0  0  0  0
  3  2  2  0  0  0  0 
  4  2  1  0  0  0  0 
  5  3  1  0  0  0  0 
  6  4  2  0  0  0  0 
  7  5  2  0  0  0  0 
  7  6  1  0  0  0  0 
  8  1  1  0  0  0  0 
  9  8  1  0  0  0  0 
 10  8  1  0  0  0  0 
 11  8  1  0  0  0  0 
 12  9  1  0  0  0  0 
 13  9  1  0  0  0  0 
 14  7  1  0  0  0  0 
 14  9  1  0  0  0  0 
M  END
> <NumberPeaksExplained>
1

> <PeaksExplained>
236.96245_999.0

> <FragmentMolecularFormulas>
236.96245:[C9H7Cl3O]+H+

> <Score>
0.18823121436828105

> <XlogP3>
3.4

> <InChI>
InChI=1S/C9H9Cl3O2/c1-8(10,11)9(12,13)14-7-5-3-2-4-6-7/h2-6,13H,1H3

> <FragmenterScore_Values>
360.0

> <MaximumTreeDepth>
2

> <MonoisotopicMass>
253.966813

> <CompoundName>
1,2,2-trichloro-1-phenoxy-propan-1-ol

> <Identifier>
70359479

> <SimScore>
0.3346

> <MolecularFormula>
C9H9Cl3O2

> <SMILES>
CC(C(O)(OC1=CC=CC=C1)Cl)(Cl)Cl

> <InChIKey2>
UHFFFAOYSA

> <InChIKey1>
CDSDHSOLLUFAIP

> <FragmenterScore>
225.37427382526238

> <NumberPeaksUsed>
22

$$$$

  CDK     0427161240

 14 14  0  0  0  0  0  0  0  0999 V2000
    0.0000    0.0000    0.0000 C   0  0  0  0  0  0  0  0  0  0  0  0
    0.0000    0.0000    0.0000 C   0  0  0  0  0  0  0  0  0  0  0  0
    0.0000    0.0000    0.0000 C   0  0  0  0  0  0  0  0  0  0  0  0
    0.0000    0.0000    0.0000 C   0  0  0  0  0  0  0  0  0  0  0  0
    0.0000    0.0000    0.0000 C   0  0  0  0  0  0  0  0  0  0  0  0
    0.0000    0.0000    0.0000 C   0  0  0  0  0  0  0  0  0  0  0  0
    0.0000    0.0000    0.0000 C   0  0  0  0  0  0  0  0  0  0  0  0
    0.0000    0.0000    0.0000 C   0  0  0  0  0  0  0  0  0  0  0  0
    0.0000    0.0000    0.0000 C   0  0  0  0  0  0  0  0  0  0  0  0
    0.0000    0.0000    0.0000 Cl  0  0  0  0  0  0  0  0  0  0  0  0
    0.0000    0.0000    0.0000 Cl  0  0  0  0  0  0  0  0  0  0  0  0
    0.0000    0.0000    0.0000 Cl  0  0  0  0  0  0  0  0  0  0  0  0
    0.0000    0.0000    0.0000 O   0  0  0  0  0  0  0  0  0  0  0  0
    0.0000    0.0000    0.0000 O   0  0  0  0  0  0  0  0  0  0  0  0
  2  1  2  0  0  0  0 
  3  1  1  0  0  0  0 
  4  2  1  0  0  0  0 
  5  3  2  0  0  0  0 
  7  4  2  0  0  0  0 
  7  5  1  0  0  0  0 
  7  6  1  0  0  0  0 
  8  6  1  0  0  0  0 
  9  8  1  0  0  0  0 
 10  9  1  0  0  0  0 
 11  9  1  0  0  0  0 
 12  9  1  0  0  0  0 
 13  8  1  0  0  0  0 
 14  8  1  0  0  0  0 
M  END
> <NumberPeaksExplained>
1

> <PeaksExplained>
236.96245_999.0

> <FragmentMolecularFormulas>
236.96245:[C9H7Cl3O]+H+

> <Score>
0.18823121436828105

> <XlogP3>
2.6

> <InChI>
InChI=1S/C9H9Cl3O2/c10-9(11,12)8(13,14)6-7-4-2-1-3-5-7/h1-5,13-14H,6H2

> <FragmenterScore_Values>
360.0

> <MaximumTreeDepth>
2

> <MonoisotopicMass>
253.966813

> <CompoundName>
1,1,1-trichloro-3-phenyl-propane-2,2-diol

> <Identifier>
68506898

> <SimScore>
0.3346

> <MolecularFormula>
C9H9Cl3O2

> <SMILES>
C1=CC=C(C=C1)CC(C(Cl)(Cl)Cl)(O)O

> <InChIKey2>
UHFFFAOYSA

> <InChIKey1>
WZNRXQJAAHAVAN

> <FragmenterScore>
225.37427382526238

> <NumberPeaksUsed>
22

$$$$

  CDK     0427161240

 14 14  0  0  0  0  0  0  0  0999 V2000
    0.0000    0.0000    0.0000 C   0  0  0  0  0  0  0  0  0  0  0  0
    0.0000    0.0000    0.0000 C   0  0  0  0  0  0  0  0  0  0  0  0
    0.0000    0.0000    0.0000 C   0  0  0  0  0  0  0  0  0  0  0  0
    0.0000    0.0000    0.0000 C   0  0  0  0  0  0  0  0  0  0  0  0
    0.0000    0.0000    0.0000 C   0  0  0  0  0  0  0  0  0  0  0  0
    0.0000    0.0000    0.0000 C   0  0  0  0  0  0  0  0  0  0  0  0
    0.0000    0.0000    0.0000 C   0  0  0  0  0  0  0  0  0  0  0  0
    0.0000    0.0000    0.0000 C   0  0  0  0  0  0  0  0  0  0  0  0
    0.0000    0.0000    0.0000 C   0  0  0  0  0  0  0  0  0  0  0  0
    0.0000    0.0000    0.0000 Cl  0  0  0  0  0  0  0  0  0  0  0  0
    0.0000    0.0000    0.0000 Cl  0  0  0  0  0  0  0  0  0  0  0  0
    0.0000    0.0000    0.0000 Cl  0  0  0  0  0  0  0  0  0  0  0  0
    0.0000    0.0000    0.0000 O   0  0  0  0  0  0  0  0  0  0  0  0
    0.0000    0.0000    0.0000 O   0  0  0  0  0  0  0  0  0  0  0  0
  2  1  1  0  0  0  0 
  4  3  1  0  0  0  0 
  6  2  1  0  0  0  0 
  6  5  2  0  0  0  0 
  7  3  2  0  0  0  0 
  7  5  1  0  0  0  0 
  8  4  2  0  0  0  0 
  8  6  1  0  0  0  0 
 10  9  1  0  0  0  0 
 11  9  1  0  0  0  0 
 12  9  1  0  0  0  0 
 13  7  1  0  0  0  0 
 14  8  1  0  0  0  0 
 14  9  1  0  0  0  0 
M  END
> <NumberPeaksExplained>
1

> <PeaksExplained>
236.96245_999.0

> <FragmentMolecularFormulas>
236.96245:[C9H7Cl3O]+H+

> <Score>
0.18823121436828105

> <XlogP3>
4.3

> <InChI>
InChI=1S/C9H9Cl3O2/c1-2-6-5-7(13)3-4-8(6)14-9(10,11)12/h3-5,13H,2H2,1H3

> <FragmenterScore_Values>
360.0

> <MaximumTreeDepth>
2

> <MonoisotopicMass>
253.966813

> <CompoundName>
3-ethyl-4-(trichloromethoxy)phenol

> <Identifier>
68486871

> <SimScore>
0.3346

> <MolecularFormula>
C9H9Cl3O2

> <SMILES>
CCC1=C(C=CC(=C1)O)OC(Cl)(Cl)Cl

> <InChIKey2>
UHFFFAOYSA

> <InChIKey1>
HWAFFTXUCIPXQV

> <FragmenterScore>
225.37427382526238

> <NumberPeaksUsed>
22

$$$$

  CDK     0427161240

 14 14  0  0  0  0  0  0  0  0999 V2000
    0.0000    0.0000    0.0000 C   0  0  0  0  0  0  0  0  0  0  0  0
    0.0000    0.0000    0.0000 C   0  0  0  0  0  0  0  0  0  0  0  0
    0.0000    0.0000    0.0000 C   0  0  0  0  0  0  0  0  0  0  0  0
    0.0000    0.0000    0.0000 C   0  0  0  0  0  0  0  0  0  0  0  0
    0.0000    0.0000    0.0000 C   0  0  0  0  0  0  0  0  0  0  0  0
    0.0000    0.0000    0.0000 C   0  0  0  0  0  0  0  0  0  0  0  0
    0.0000    0.0000    0.0000 C   0  0  0  0  0  0  0  0  0  0  0  0
    0.0000    0.0000    0.0000 C   0  0  0  0  0  0  0  0  0  0  0  0
    0.0000    0.0000    0.0000 C   0  0  0  0  0  0  0  0  0  0  0  0
    0.0000    0.0000    0.0000 Cl  0  0  0  0  0  0  0  0  0  0  0  0
    0.0000    0.0000    0.0000 Cl  0  0  0  0  0  0  0  0  0  0  0  0
    0.0000    0.0000    0.0000 Cl  0  0  0  0  0  0  0  0  0  0  0  0
    0.0000    0.0000    0.0000 O   0  0  0  0  0  0  0  0  0  0  0  0
    0.0000    0.0000    0.0000 O   0  0  0  0  0  0  0  0  0  0  0  0
  3  1  1  0  0  0  0 
  4  2  2  0  0  0  0 
  7  1  2  0  0  0  0 
  7  2  1  0  0  0  0 
  7  5  1  0  0  0  0 
  8  3  2  0  0  0  0 
  8  4  1  0  0  0  0 
  9  6  1  0  0  0  0 
 10  9  1  0  0  0  0 
 11  9  1  0  0  0  0 
 12  9  1  0  0  0  0 
 13  8  1  0  0  0  0 
 14  5  1  0  0  0  0 
 14  6  1  0  0  0  0 
M  END
> <NumberPeaksExplained>
1

> <PeaksExplained>
236.96245_999.0

> <FragmentMolecularFormulas>
236.96245:[C9H7Cl3O]+H+

> <Score>
0.18823121436828105

> <XlogP3>
3.1

> <InChI>
InChI=1S/C9H9Cl3O2/c10-9(11,12)6-14-5-7-1-3-8(13)4-2-7/h1-4,13H,5-6H2

> <FragmenterScore_Values>
360.0

> <MaximumTreeDepth>
2

> <MonoisotopicMass>
253.966813

> <CompoundName>
4-(2,2,2-trichloroethoxymethyl)phenol

> <Identifier>
68114055

> <SimScore>
0.3346

> <MolecularFormula>
C9H9Cl3O2

> <SMILES>
C1=CC(=CC=C1COCC(Cl)(Cl)Cl)O

> <InChIKey2>
UHFFFAOYSA

> <InChIKey1>
CBURNNZMHNPAOF

> <FragmenterScore>
225.37427382526238

> <NumberPeaksUsed>
22

$$$$

  CDK     0427161240

 14 14  0  0  0  0  0  0  0  0999 V2000
    0.0000    0.0000    0.0000 C   0  0  0  0  0  0  0  0  0  0  0  0
    0.0000    0.0000    0.0000 C   0  0  0  0  0  0  0  0  0  0  0  0
    0.0000    0.0000    0.0000 C   0  0  0  0  0  0  0  0  0  0  0  0
    0.0000    0.0000    0.0000 C   0  0  0  0  0  0  0  0  0  0  0  0
    0.0000    0.0000    0.0000 C   0  0  0  0  0  0  0  0  0  0  0  0
    0.0000    0.0000    0.0000 C   0  0  0  0  0  0  0  0  0  0  0  0
    0.0000    0.0000    0.0000 C   0  0  0  0  0  0  0  0  0  0  0  0
    0.0000    0.0000    0.0000 C   0  0  0  0  0  0  0  0  0  0  0  0
    0.0000    0.0000    0.0000 C   0  0  0  0  0  0  0  0  0  0  0  0
    0.0000    0.0000    0.0000 Cl  0  0  0  0  0  0  0  0  0  0  0  0
    0.0000    0.0000    0.0000 Cl  0  0  0  0  0  0  0  0  0  0  0  0
    0.0000    0.0000    0.0000 Cl  0  0  0  0  0  0  0  0  0  0  0  0
    0.0000    0.0000    0.0000 O   0  0  0  0  0  0  0  0  0  0  0  0
    0.0000    0.0000    0.0000 O   0  0  0  0  0  0  0  0  0  0  0  0
  2  1  2  0  0  0  0 
  3  1  1  0  0  0  0 
  4  2  1  0  0  0  0 
  5  3  2  0  0  0  0 
  7  4  2  0  0  0  0 
  7  5  1  0  0  0  0 
  8  6  1  0  0  0  0 
  9  8  1  0  0  0  0 
 10  8  1  0  0  0  0 
 11  9  1  0  0  0  0 
 12  9  1  0  0  0  0 
 13  9  1  0  0  0  0 
 14  6  1  0  0  0  0 
 14  7  1  0  0  0  0 
M  END
> <NumberPeaksExplained>
1

> <PeaksExplained>
236.96245_999.0

> <FragmentMolecularFormulas>
236.96245:[C9H7Cl3O]+H+

> <Score>
0.18823121436828105

> <XlogP3>
3.1

> <InChI>
InChI=1S/C9H9Cl3O2/c10-8(9(11,12)13)6-14-7-4-2-1-3-5-7/h1-5,8,13H,6H2

> <FragmenterScore_Values>
360.0

> <MaximumTreeDepth>
2

> <MonoisotopicMass>
253.966813

> <CompoundName>
1,1,2-trichloro-3-phenoxy-propan-1-ol

> <Identifier>
54357233

> <SimScore>
0.3346

> <MolecularFormula>
C9H9Cl3O2

> <SMILES>
C1=CC=C(C=C1)OCC(C(O)(Cl)Cl)Cl

> <InChIKey2>
UHFFFAOYSA

> <InChIKey1>
UJYOKJATRZDRRR

> <FragmenterScore>
225.37427382526238

> <NumberPeaksUsed>
22

$$$$

  CDK     0427161240

 14 14  0  0  0  0  0  0  0  0999 V2000
    0.0000    0.0000    0.0000 C   0  0  0  0  0  0  0  0  0  0  0  0
    0.0000    0.0000    0.0000 C   0  0  0  0  0  0  0  0  0  0  0  0
    0.0000    0.0000    0.0000 C   0  0  0  0  0  0  0  0  0  0  0  0
    0.0000    0.0000    0.0000 C   0  0  0  0  0  0  0  0  0  0  0  0
    0.0000    0.0000    0.0000 C   0  0  0  0  0  0  0  0  0  0  0  0
    0.0000    0.0000    0.0000 C   0  0  0  0  0  0  0  0  0  0  0  0
    0.0000    0.0000    0.0000 C   0  0  0  0  0  0  0  0  0  0  0  0
    0.0000    0.0000    0.0000 C   0  0  0  0  0  0  0  0  0  0  0  0
    0.0000    0.0000    0.0000 C   0  0  0  0  0  0  0  0  0  0  0  0
    0.0000    0.0000    0.0000 Cl  0  0  0  0  0  0  0  0  0  0  0  0
    0.0000    0.0000    0.0000 Cl  0  0  0  0  0  0  0  0  0  0  0  0
    0.0000    0.0000    0.0000 Cl  0  0  0  0  0  0  0  0  0  0  0  0
    0.0000    0.0000    0.0000 O   0  0  0  0  0  0  0  0  0  0  0  0
    0.0000    0.0000    0.0000 O   0  0  0  0  0  0  0  0  0  0  0  0
  2  1  2  0  0  0  0 
  3  1  1  0  0  0  0 
  4  2  1  0  0  0  0 
  5  3  2  0  0  0  0 
  6  4  2  0  0  0  0 
  6  5  1  0  0  0  0 
  8  7  1  0  0  0  0 
  9  7  1  0  0  0  0 
 10  7  1  0  0  0  0 
 11  8  1  0  0  0  0 
 12  8  1  0  0  0  0 
 13  9  1  0  0  0  0 
 14  6  1  0  0  0  0 
 14  9  1  0  0  0  0 
M  END
> <NumberPeaksExplained>
1

> <PeaksExplained>
236.96245_999.0

> <FragmentMolecularFormulas>
236.96245:[C9H7Cl3O]+H+

> <Score>
0.18823121436828105

> <XlogP3>
3.4

> <InChI>
InChI=1S/C9H9Cl3O2/c10-7(8(11)12)9(13)14-6-4-2-1-3-5-6/h1-5,7-9,13H

> <FragmenterScore_Values>
360.0

> <MaximumTreeDepth>
2

> <MonoisotopicMass>
253.966813

> <CompoundName>
2,3,3-trichloro-1-phenoxy-propan-1-ol

> <Identifier>
20536714

> <SimScore>
0.3346

> <MolecularFormula>
C9H9Cl3O2

> <SMILES>
C1=CC=C(C=C1)OC(C(C(Cl)Cl)Cl)O

> <InChIKey2>
UHFFFAOYSA

> <InChIKey1>
XCWCAGIMLSOGKK

> <FragmenterScore>
225.37427382526238

> <NumberPeaksUsed>
22

$$$$

  CDK     0427161240

 14 14  0  0  0  0  0  0  0  0999 V2000
    0.0000    0.0000    0.0000 C   0  0  0  0  0  0  0  0  0  0  0  0
    0.0000    0.0000    0.0000 C   0  0  0  0  0  0  0  0  0  0  0  0
    0.0000    0.0000    0.0000 C   0  0  0  0  0  0  0  0  0  0  0  0
    0.0000    0.0000    0.0000 C   0  0  0  0  0  0  0  0  0  0  0  0
    0.0000    0.0000    0.0000 C   0  0  0  0  0  0  0  0  0  0  0  0
    0.0000    0.0000    0.0000 C   0  0  0  0  0  0  0  0  0  0  0  0
    0.0000    0.0000    0.0000 C   0  0  0  0  0  0  0  0  0  0  0  0
    0.0000    0.0000    0.0000 C   0  0  0  0  0  0  0  0  0  0  0  0
    0.0000    0.0000    0.0000 C   0  0  0  0  0  0  0  0  0  0  0  0
    0.0000    0.0000    0.0000 Cl  0  0  0  0  0  0  0  0  0  0  0  0
    0.0000    0.0000    0.0000 Cl  0  0  0  0  0  0  0  0  0  0  0  0
    0.0000    0.0000    0.0000 Cl  0  0  0  0  0  0  0  0  0  0  0  0
    0.0000    0.0000    0.0000 O   0  0  0  0  0  0  0  0  0  0  0  0
    0.0000    0.0000    0.0000 O   0  0  0  0  0  0  0  0  0  0  0  0
  2  1  2  0  0  0  0 
  3  1  1  0  0  0  0 
  4  2  1  0  0  0  0 
  5  3  2  0  0  0  0 
  7  4  2  0  0  0  0 
  7  5  1  0  0  0  0 
  8  6  1  0  0  0  0 
  9  8  1  0  0  0  0 
 10  9  1  0  0  0  0 
 11  9  1  0  0  0  0 
 12  9  1  0  0  0  0 
 13  8  1  0  0  0  0 
 14  6  1  0  0  0  0 
 14  7  1  0  0  0  0 
M  END
> <NumberPeaksExplained>
1

> <PeaksExplained>
236.96245_999.0

> <FragmentMolecularFormulas>
236.96245:[C9H7Cl3O]+H+

> <Score>
0.18823121436828105

> <XlogP3>
3.1

> <InChI>
InChI=1S/C9H9Cl3O2/c10-9(11,12)8(13)6-14-7-4-2-1-3-5-7/h1-5,8,13H,6H2

> <FragmenterScore_Values>
360.0

> <MaximumTreeDepth>
2

> <MonoisotopicMass>
253.966813

> <CompoundName>
1,1,1-trichloro-3-phenoxy-propan-2-ol

> <Identifier>
20536713

> <SimScore>
0.3346

> <MolecularFormula>
C9H9Cl3O2

> <SMILES>
C1=CC=C(C=C1)OCC(C(Cl)(Cl)Cl)O

> <InChIKey2>
UHFFFAOYSA

> <InChIKey1>
OEDARTDYLDZWCT

> <FragmenterScore>
225.37427382526238

> <NumberPeaksUsed>
22

$$$$

  CDK     0427161240

 14 14  0  0  0  0  0  0  0  0999 V2000
    0.0000    0.0000    0.0000 C   0  0  0  0  0  0  0  0  0  0  0  0
    0.0000    0.0000    0.0000 C   0  0  0  0  0  0  0  0  0  0  0  0
    0.0000    0.0000    0.0000 C   0  0  0  0  0  0  0  0  0  0  0  0
    0.0000    0.0000    0.0000 C   0  0  0  0  0  0  0  0  0  0  0  0
    0.0000    0.0000    0.0000 C   0  0  0  0  0  0  0  0  0  0  0  0
    0.0000    0.0000    0.0000 C   0  0  0  0  0  0  0  0  0  0  0  0
    0.0000    0.0000    0.0000 C   0  0  0  0  0  0  0  0  0  0  0  0
    0.0000    0.0000    0.0000 C   0  0  0  0  0  0  0  0  0  0  0  0
    0.0000    0.0000    0.0000 C   0  0  0  0  0  0  0  0  0  0  0  0
    0.0000    0.0000    0.0000 Cl  0  0  0  0  0  0  0  0  0  0  0  0
    0.0000    0.0000    0.0000 Cl  0  0  0  0  0  0  0  0  0  0  0  0
    0.0000    0.0000    0.0000 Cl  0  0  0  0  0  0  0  0  0  0  0  0
    0.0000    0.0000    0.0000 O   0  0  0  0  0  0  0  0  0  0  0  0
    0.0000    0.0000    0.0000 O   0  0  0  0  0  0  0  0  0  0  0  0
  2  1  2  0  0  0  0 
  6  1  1  0  0  0  0 
  6  3  2  0  0  0  0 
  7  4  1  0  0  0  0 
  7  5  1  0  0  0  0 
  8  2  1  0  0  0  0 
  9  3  1  0  0  0  0 
  9  8  2  0  0  0  0 
 10  4  1  0  0  0  0 
 11  6  1  0  0  0  0 
 12  8  1  0  0  0  0 
 13  7  1  0  0  0  0 
 14  5  1  0  0  0  0 
 14  9  1  0  0  0  0 
M  END
> <NumberPeaksExplained>
1

> <PeaksExplained>
236.96245_999.0

> <FragmentMolecularFormulas>
236.96245:[C9H7Cl3O]+H+

> <Score>
0.18823121436828105

> <XlogP3>
3.1

> <InChI>
InChI=1S/C9H9Cl3O2/c10-4-7(13)5-14-9-3-6(11)1-2-8(9)12/h1-3,7,13H,4-5H2

> <FragmenterScore_Values>
360.0

> <MaximumTreeDepth>
2

> <MonoisotopicMass>
253.966813

> <CompoundName>
1-chloro-3-(2,5-dichlorophenoxy)propan-2-ol

> <Identifier>
20311864

> <SimScore>
0.3346

> <MolecularFormula>
C9H9Cl3O2

> <SMILES>
C1=CC(=C(C=C1Cl)OCC(CCl)O)Cl

> <InChIKey2>
UHFFFAOYSA

> <InChIKey1>
MTWBUKBMYJXKNU

> <FragmenterScore>
225.37427382526238

> <NumberPeaksUsed>
22

$$$$

  CDK     0427161240

 14 14  0  0  0  0  0  0  0  0999 V2000
    0.0000    0.0000    0.0000 C   0  0  0  0  0  0  0  0  0  0  0  0
    0.0000    0.0000    0.0000 C   0  0  0  0  0  0  0  0  0  0  0  0
    0.0000    0.0000    0.0000 C   0  0  0  0  0  0  0  0  0  0  0  0
    0.0000    0.0000    0.0000 C   0  0  0  0  0  0  0  0  0  0  0  0
    0.0000    0.0000    0.0000 C   0  0  0  0  0  0  0  0  0  0  0  0
    0.0000    0.0000    0.0000 C   0  0  0  0  0  0  0  0  0  0  0  0
    0.0000    0.0000    0.0000 C   0  0  0  0  0  0  0  0  0  0  0  0
    0.0000    0.0000    0.0000 C   0  0  0  0  0  0  0  0  0  0  0  0
    0.0000    0.0000    0.0000 C   0  0  0  0  0  0  0  0  0  0  0  0
    0.0000    0.0000    0.0000 Cl  0  0  0  0  0  0  0  0  0  0  0  0
    0.0000    0.0000    0.0000 Cl  0  0  0  0  0  0  0  0  0  0  0  0
    0.0000    0.0000    0.0000 Cl  0  0  0  0  0  0  0  0  0  0  0  0
    0.0000    0.0000    0.0000 O   0  0  0  0  0  0  0  0  0  0  0  0
    0.0000    0.0000    0.0000 O   0  0  0  0  0  0  0  0  0  0  0  0
  3  2  2  0  0  0  0 
  4  2  1  0  0  0  0 
  6  3  1  0  0  0  0 
  6  5  2  0  0  0  0 
  7  4  2  0  0  0  0 
  7  5  1  0  0  0  0 
  8  6  1  0  0  0  0 
  9  8  1  0  0  0  0 
 10  9  1  0  0  0  0 
 11  9  1  0  0  0  0 
 12  9  1  0  0  0  0 
 13  8  1  0  0  0  0 
 14  1  1  0  0  0  0 
 14  7  1  0  0  0  0 
M  END
> <NumberPeaksExplained>
1

> <PeaksExplained>
236.96245_999.0

> <FragmentMolecularFormulas>
236.96245:[C9H7Cl3O]+H+

> <Score>
0.18823121436828105

> <XlogP3>
3.3

> <InChI>
InChI=1S/C9H9Cl3O2/c1-14-7-4-2-3-6(5-7)8(13)9(10,11)12/h2-5,8,13H,1H3

> <FragmenterScore_Values>
360.0

> <MaximumTreeDepth>
2

> <MonoisotopicMass>
253.966813

> <CompoundName>
2,2,2-trichloro-1-(3-methoxyphenyl)ethanol

> <Identifier>
13434525

> <SimScore>
0.3346

> <MolecularFormula>
C9H9Cl3O2

> <SMILES>
COC1=CC=CC(=C1)C(C(Cl)(Cl)Cl)O

> <InChIKey2>
UHFFFAOYSA

> <InChIKey1>
PZRZHWULTQNEHM

> <FragmenterScore>
225.37427382526238

> <NumberPeaksUsed>
22

$$$$

  CDK     0427161240

 14 14  0  0  0  0  0  0  0  0999 V2000
    0.0000    0.0000    0.0000 C   0  0  0  0  0  0  0  0  0  0  0  0
    0.0000    0.0000    0.0000 C   0  0  0  0  0  0  0  0  0  0  0  0
    0.0000    0.0000    0.0000 C   0  0  0  0  0  0  0  0  0  0  0  0
    0.0000    0.0000    0.0000 C   0  0  0  0  0  0  0  0  0  0  0  0
    0.0000    0.0000    0.0000 C   0  0  0  0  0  0  0  0  0  0  0  0
    0.0000    0.0000    0.0000 C   0  0  0  0  0  0  0  0  0  0  0  0
    0.0000    0.0000    0.0000 C   0  0  0  0  0  0  0  0  0  0  0  0
    0.0000    0.0000    0.0000 C   0  0  0  0  0  0  0  0  0  0  0  0
    0.0000    0.0000    0.0000 C   0  0  0  0  0  0  0  0  0  0  0  0
    0.0000    0.0000    0.0000 Cl  0  0  0  0  0  0  0  0  0  0  0  0
    0.0000    0.0000    0.0000 Cl  0  0  0  0  0  0  0  0  0  0  0  0
    0.0000    0.0000    0.0000 Cl  0  0  0  0  0  0  0  0  0  0  0  0
    0.0000    0.0000    0.0000 O   0  0  0  0  0  0  0  0  0  0  0  0
    0.0000    0.0000    0.0000 O   0  0  0  0  0  0  0  0  0  0  0  0
  4  2  1  0  0  0  0 
  5  3  2  0  0  0  0 
  6  2  2  0  0  0  0 
  6  3  1  0  0  0  0 
  7  4  2  0  0  0  0 
  7  5  1  0  0  0  0 
  8  6  1  0  0  0  0 
  9  8  1  0  0  0  0 
 10  9  1  0  0  0  0 
 11  9  1  0  0  0  0 
 12  9  1  0  0  0  0 
 13  8  1  0  0  0  0 
 14  1  1  0  0  0  0 
 14  7  1  0  0  0  0 
M  END
> <NumberPeaksExplained>
1

> <PeaksExplained>
236.96245_999.0

> <FragmentMolecularFormulas>
236.96245:[C9H7Cl3O]+H+

> <Score>
0.18823121436828105

> <XlogP3>
2.9

> <InChI>
InChI=1S/C9H9Cl3O2/c1-14-7-4-2-6(3-5-7)8(13)9(10,11)12/h2-5,8,13H,1H3

> <FragmenterScore_Values>
360.0

> <MaximumTreeDepth>
2

> <MonoisotopicMass>
253.966813

> <CompoundName>
2,2,2-trichloro-1-(4-methoxyphenyl)ethanol

> <Identifier>
5177931

> <SimScore>
0.3346

> <MolecularFormula>
C9H9Cl3O2

> <SMILES>
COC1=CC=C(C=C1)C(C(Cl)(Cl)Cl)O

> <InChIKey2>
UHFFFAOYSA

> <InChIKey1>
DQMIPRIVNVYSDB

> <FragmenterScore>
225.37427382526238

> <NumberPeaksUsed>
22

$$$$

  CDK     0427161240

 14 14  0  0  0  0  0  0  0  0999 V2000
    0.0000    0.0000    0.0000 C   0  0  0  0  0  0  0  0  0  0  0  0
    0.0000    0.0000    0.0000 C   0  0  0  0  0  0  0  0  0  0  0  0
    0.0000    0.0000    0.0000 C   0  0  0  0  0  0  0  0  0  0  0  0
    0.0000    0.0000    0.0000 C   0  0  0  0  0  0  0  0  0  0  0  0
    0.0000    0.0000    0.0000 C   0  0  0  0  0  0  0  0  0  0  0  0
    0.0000    0.0000    0.0000 C   0  0  0  0  0  0  0  0  0  0  0  0
    0.0000    0.0000    0.0000 C   0  0  0  0  0  0  0  0  0  0  0  0
    0.0000    0.0000    0.0000 C   0  0  0  0  0  0  0  0  0  0  0  0
    0.0000    0.0000    0.0000 C   0  0  0  0  0  0  0  0  0  0  0  0
    0.0000    0.0000    0.0000 Cl  0  0  0  0  0  0  0  0  0  0  0  0
    0.0000    0.0000    0.0000 Cl  0  0  0  0  0  0  0  0  0  0  0  0
    0.0000    0.0000    0.0000 Cl  0  0  0  0  0  0  0  0  0  0  0  0
    0.0000    0.0000    0.0000 O   0  0  0  0  0  0  0  0  0  0  0  0
    0.0000    0.0000    0.0000 O   0  0  0  0  0  0  0  0  0  0  0  0
  4  2  1  0  0  0  0 
  5  3  2  0  0  0  0 
  6  2  2  0  0  0  0 
  6  3  1  0  0  0  0 
  7  4  2  0  0  0  0 
  7  5  1  0  0  0  0 
  8  6  1  0  0  0  0 
  9  8  1  0  0  0  0 
 10  9  1  0  0  0  0 
 11  9  1  0  0  0  0 
 12  9  1  0  0  0  0 
 13  8  1  0  0  0  0 
 14  1  1  0  0  0  0 
 14  7  1  0  0  0  0 
M  END
> <NumberPeaksExplained>
1

> <PeaksExplained>
236.96245_999.0

> <FragmentMolecularFormulas>
236.96245:[C9H7Cl3O]+H+

> <Score>
0.18823121436828105

> <XlogP3>
2.9

> <InChI>
InChI=1S/C9H9Cl3O2/c1-14-7-4-2-6(3-5-7)8(13)9(10,11)12/h2-5,8,13H,1H3/t8-/m1/s1

> <FragmenterScore_Values>
360.0

> <MaximumTreeDepth>
2

> <MonoisotopicMass>
253.966813

> <CompoundName>
(1R)-2,2,2-trichloro-1-(4-methoxyphenyl)ethanol

> <Identifier>
690030

> <SimScore>
0.3346

> <MolecularFormula>
C9H9Cl3O2

> <SMILES>
COC1=CC=C(C=C1)[C@H](C(Cl)(Cl)Cl)O

> <InChIKey2>
MRVPVSSYSA

> <InChIKey1>
DQMIPRIVNVYSDB

> <FragmenterScore>
225.37427382526238

> <NumberPeaksUsed>
22

$$$$

  CDK     0427161240

 14 14  0  0  0  0  0  0  0  0999 V2000
    0.0000    0.0000    0.0000 C   0  0  0  0  0  0  0  0  0  0  0  0
    0.0000    0.0000    0.0000 C   0  0  0  0  0  0  0  0  0  0  0  0
    0.0000    0.0000    0.0000 C   0  0  0  0  0  0  0  0  0  0  0  0
    0.0000    0.0000    0.0000 C   0  0  0  0  0  0  0  0  0  0  0  0
    0.0000    0.0000    0.0000 C   0  0  0  0  0  0  0  0  0  0  0  0
    0.0000    0.0000    0.0000 C   0  0  0  0  0  0  0  0  0  0  0  0
    0.0000    0.0000    0.0000 C   0  0  0  0  0  0  0  0  0  0  0  0
    0.0000    0.0000    0.0000 C   0  0  0  0  0  0  0  0  0  0  0  0
    0.0000    0.0000    0.0000 C   0  0  0  0  0  0  0  0  0  0  0  0
    0.0000    0.0000    0.0000 Cl  0  0  0  0  0  0  0  0  0  0  0  0
    0.0000    0.0000    0.0000 Cl  0  0  0  0  0  0  0  0  0  0  0  0
    0.0000    0.0000    0.0000 Cl  0  0  0  0  0  0  0  0  0  0  0  0
    0.0000    0.0000    0.0000 O   0  0  0  0  0  0  0  0  0  0  0  0
    0.0000    0.0000    0.0000 O   0  0  0  0  0  0  0  0  0  0  0  0
  4  2  1  0  0  0  0 
  5  3  2  0  0  0  0 
  6  2  2  0  0  0  0 
  6  3  1  0  0  0  0 
  7  4  2  0  0  0  0 
  7  5  1  0  0  0  0 
  8  6  1  0  0  0  0 
  9  8  1  0  0  0  0 
 10  9  1  0  0  0  0 
 11  9  1  0  0  0  0 
 12  9  1  0  0  0  0 
 13  8  1  0  0  0  0 
 14  1  1  0  0  0  0 
 14  7  1  0  0  0  0 
M  END
> <NumberPeaksExplained>
1

> <PeaksExplained>
236.96245_999.0

> <FragmentMolecularFormulas>
236.96245:[C9H7Cl3O]+H+

> <Score>
0.18823121436828105

> <XlogP3>
2.9

> <InChI>
InChI=1S/C9H9Cl3O2/c1-14-7-4-2-6(3-5-7)8(13)9(10,11)12/h2-5,8,13H,1H3/t8-/m0/s1

> <FragmenterScore_Values>
360.0

> <MaximumTreeDepth>
2

> <MonoisotopicMass>
253.966813

> <CompoundName>
(1S)-2,2,2-trichloro-1-(4-methoxyphenyl)ethanol

> <Identifier>
690029

> <SimScore>
0.3346

> <MolecularFormula>
C9H9Cl3O2

> <SMILES>
COC1=CC=C(C=C1)[C@@H](C(Cl)(Cl)Cl)O

> <InChIKey2>
QMMMGPOBSA

> <InChIKey1>
DQMIPRIVNVYSDB

> <FragmenterScore>
225.37427382526238

> <NumberPeaksUsed>
22

$$$$

  CDK     0427161240

 14 14  0  0  0  0  0  0  0  0999 V2000
    0.0000    0.0000    0.0000 C   0  0  0  0  0  0  0  0  0  0  0  0
    0.0000    0.0000    0.0000 C   0  0  0  0  0  0  0  0  0  0  0  0
    0.0000    0.0000    0.0000 C   0  0  0  0  0  0  0  0  0  0  0  0
    0.0000    0.0000    0.0000 C   0  0  0  0  0  0  0  0  0  0  0  0
    0.0000    0.0000    0.0000 C   0  0  0  0  0  0  0  0  0  0  0  0
    0.0000    0.0000    0.0000 C   0  0  0  0  0  0  0  0  0  0  0  0
    0.0000    0.0000    0.0000 C   0  0  0  0  0  0  0  0  0  0  0  0
    0.0000    0.0000    0.0000 C   0  0  0  0  0  0  0  0  0  0  0  0
    0.0000    0.0000    0.0000 C   0  0  0  0  0  0  0  0  0  0  0  0
    0.0000    0.0000    0.0000 Cl  0  0  0  0  0  0  0  0  0  0  0  0
    0.0000    0.0000    0.0000 Cl  0  0  0  0  0  0  0  0  0  0  0  0
    0.0000    0.0000    0.0000 Cl  0  0  0  0  0  0  0  0  0  0  0  0
    0.0000    0.0000    0.0000 O   0  0  0  0  0  0  0  0  0  0  0  0
    0.0000    0.0000    0.0000 O   0  0  0  0  0  0  0  0  0  0  0  0
  3  2  2  0  0  0  0 
  4  2  1  0  0  0  0 
  5  3  1  0  0  0  0 
  6  4  2  0  0  0  0 
  7  5  2  0  0  0  0 
  7  6  1  0  0  0  0 
  8  6  1  0  0  0  0 
  9  8  1  0  0  0  0 
 10  9  1  0  0  0  0 
 11  9  1  0  0  0  0 
 12  9  1  0  0  0  0 
 13  8  1  0  0  0  0 
 14  1  1  0  0  0  0 
 14  7  1  0  0  0  0 
M  END
> <NumberPeaksExplained>
1

> <PeaksExplained>
236.96245_999.0

> <FragmentMolecularFormulas>
236.96245:[C9H7Cl3O]+H+

> <Score>
0.18823121436828105

> <XlogP3>
2.9

> <InChI>
InChI=1S/C9H9Cl3O2/c1-14-7-5-3-2-4-6(7)8(13)9(10,11)12/h2-5,8,13H,1H3

> <FragmenterScore_Values>
360.0

> <MaximumTreeDepth>
2

> <MonoisotopicMass>
253.966813

> <CompoundName>
2,2,2-trichloro-1-(2-methoxyphenyl)ethanol

> <Identifier>
181179

> <SimScore>
0.3346

> <MolecularFormula>
C9H9Cl3O2

> <SMILES>
COC1=CC=CC=C1C(C(Cl)(Cl)Cl)O

> <InChIKey2>
UHFFFAOYSA

> <InChIKey1>
KPLFBDBZZWTASA

> <FragmenterScore>
225.37427382526238

> <NumberPeaksUsed>
22

$$$$

  CDK     0427161240

 14 14  0  0  0  0  0  0  0  0999 V2000
    0.0000    0.0000    0.0000 C   0  0  0  0  0  0  0  0  0  0  0  0
    0.0000    0.0000    0.0000 C   0  0  0  0  0  0  0  0  0  0  0  0
    0.0000    0.0000    0.0000 C   0  0  0  0  0  0  0  0  0  0  0  0
    0.0000    0.0000    0.0000 C   0  0  0  0  0  0  0  0  0  0  0  0
    0.0000    0.0000    0.0000 C   0  0  0  0  0  0  0  0  0  0  0  0
    0.0000    0.0000    0.0000 C   0  0  0  0  0  0  0  0  0  0  0  0
    0.0000    0.0000    0.0000 C   0  0  0  0  0  0  0  0  0  0  0  0
    0.0000    0.0000    0.0000 C   0  0  0  0  0  0  0  0  0  0  0  0
    0.0000    0.0000    0.0000 C   0  0  0  0  0  0  0  0  0  0  0  0
    0.0000    0.0000    0.0000 Cl  0  0  0  0  0  0  0  0  0  0  0  0
    0.0000    0.0000    0.0000 Cl  0  0  0  0  0  0  0  0  0  0  0  0
    0.0000    0.0000    0.0000 Cl  0  0  0  0  0  0  0  0  0  0  0  0
    0.0000    0.0000    0.0000 O   0  0  0  0  0  0  0  0  0  0  0  0
    0.0000    0.0000    0.0000 O   0  0  0  0  0  0  0  0  0  0  0  0
  2  1  1  0  0  0  0 
  3  2  1  0  0  0  0 
  4  3  1  0  0  0  0 
  5  4  1  0  0  0  0 
  6  5  2  0  0  0  0 
  7  6  1  0  0  0  0 
  8  7  2  0  0  0  0 
  9  8  1  0  0  0  0 
 10  6  1  0  0  0  0 
 11  7  1  0  0  0  0 
 12  9  1  0  0  0  0 
 13  9  2  0  0  0  0 
 14  5  1  0  0  0  0 
 14  8  1  0  0  0  0 
M  END
> <NumberPeaksExplained>
4

> <PeaksExplained>
106.94476_274.0;163.00682_782.0;172.99055_17.0;236.96245_999.0

> <FragmentMolecularFormulas>
106.94476:[C3Cl2]+H+;163.00682:[C7H9Cl2]+;172.99055:[C8H9Cl2-2H]+;236.96245:[C9H9Cl3O-H]+

> <Score>
0.18408930342923807

> <XlogP3>
4.8

> <InChI>
InChI=1S/C9H9Cl3O2/c1-2-3-4-5-6(10)7(11)8(14-5)9(12)13/h2-4H2,1H3

> <FragmenterScore_Values>
1703.0;843.0;1355.0;2034.0

> <MaximumTreeDepth>
2

> <MonoisotopicMass>
253.966813

> <CompoundName>
5-butyl-3,4-dichloro-furan-2-carbonyl chloride

> <Identifier>
12210575

> <SimScore>
0.4348

> <MolecularFormula>
C9H9Cl3O2

> <SMILES>
CCCCC1=C(C(=C(O1)C(=O)Cl)Cl)Cl

> <InChIKey2>
UHFFFAOYSA

> <InChIKey1>
XVOFGWQVVVJCIC

> <FragmenterScore>
220.41505293690676

> <NumberPeaksUsed>
22

$$$$

  CDK     0427161240

 16 17  0  0  0  0  0  0  0  0999 V2000
    0.0000    0.0000    0.0000 C   0  0  0  0  0  0  0  0  0  0  0  0
    0.0000    0.0000    0.0000 C   0  0  0  0  0  0  0  0  0  0  0  0
    0.0000    0.0000    0.0000 C   0  0  0  0  0  0  0  0  0  0  0  0
    0.0000    0.0000    0.0000 C   0  0  0  0  0  0  0  0  0  0  0  0
    0.0000    0.0000    0.0000 C   0  0  0  0  0  0  0  0  0  0  0  0
    0.0000    0.0000    0.0000 C   0  0  0  0  0  0  0  0  0  0  0  0
    0.0000    0.0000    0.0000 C   0  0  0  0  0  0  0  0  0  0  0  0
    0.0000    0.0000    0.0000 C   0  0  0  0  0  0  0  0  0  0  0  0
    0.0000    0.0000    0.0000 C   0  0  0  0  0  0  0  0  0  0  0  0
    0.0000    0.0000    0.0000 C   0  0  0  0  0  0  0  0  0  0  0  0
    0.0000    0.0000    0.0000 Cl  0  0  0  0  0  0  0  0  0  0  0  0
    0.0000    0.0000    0.0000 Cl  0  0  0  0  0  0  0  0  0  0  0  0
    0.0000    0.0000    0.0000 N   0  0  0  0  0  0  0  0  0  0  0  0
    0.0000    0.0000    0.0000 N   0  0  0  0  0  0  0  0  0  0  0  0
    0.0000    0.0000    0.0000 O   0  0  0  0  0  0  0  0  0  0  0  0
    0.0000    0.0000    0.0000 O   0  0  0  0  0  0  0  0  0  0  0  0
  3  1  2  0  0  0  0 
  4  2  2  0  0  0  0 
  5  1  1  0  0  0  0 
  5  2  1  0  0  0  0 
  6  3  1  0  0  0  0 
  7  4  1  0  0  0  0 
  8  6  1  0  0  0  0 
  9  7  1  0  0  0  0 
 10  5  2  0  0  0  0 
 11  8  1  0  0  0  0 
 12  9  1  0  0  0  0 
 13  6  2  0  0  0  0 
 13 10  1  0  0  0  0 
 14  7  2  0  0  0  0 
 14 10  1  0  0  0  0 
 15  8  2  0  0  0  0 
 16  9  2  0  0  0  0 
M  END
> <NumberPeaksExplained>
4

> <PeaksExplained>
115.98965_95.0;163.00682_782.0;172.99055_17.0;236.96245_999.0

> <FragmentMolecularFormulas>
115.98965:[C4H2ClNO]+H+;163.00682:[C8H4ClN2]+;172.99055:[C9H4ClN2-2H]+;236.96245:[C10H4Cl2N2O-H]+

> <Score>
0.1753505727036404

> <XlogP3>
3.1

> <InChI>
InChI=1S/C10H4Cl2N2O2/c11-8(15)6-3-1-5-2-4-7(9(12)16)14-10(5)13-6/h1-4H

> <FragmenterScore_Values>
1225.0;843.0;1968.0;1291.0

> <MaximumTreeDepth>
2

> <MonoisotopicMass>
253.964983

> <CompoundName>
1,8-naphthyridine-2,7-dicarbonyl chloride

> <Identifier>
12826709

> <SimScore>
0.4262

> <MolecularFormula>
C10H4Cl2N2O2

> <SMILES>
C1=CC(=NC2=C1C=CC(=N2)C(=O)Cl)C(=O)Cl

> <InChIKey2>
UHFFFAOYSA

> <InChIKey1>
UKVFSXRZFHDIOF

> <FragmenterScore>
209.95193661453786

> <NumberPeaksUsed>
22

$$$$

  CDK     0427161240

 13 13  0  0  0  0  0  0  0  0999 V2000
    0.0000    0.0000    0.0000 C   0  0  0  0  0  0  0  0  0  0  0  0
    0.0000    0.0000    0.0000 C   0  0  0  0  0  0  0  0  0  0  0  0
    0.0000    0.0000    0.0000 C   0  0  0  0  0  0  0  0  0  0  0  0
    0.0000    0.0000    0.0000 C   0  0  0  0  0  0  0  0  0  0  0  0
    0.0000    0.0000    0.0000 C   0  0  0  0  0  0  0  0  0  0  0  0
    0.0000    0.0000    0.0000 C   0  0  0  0  0  0  0  0  0  0  0  0
    0.0000    0.0000    0.0000 C   0  0  0  0  0  0  0  0  0  0  0  0
    0.0000    0.0000    0.0000 O   0  0  0  0  0  0  0  0  0  0  0  0
    0.0000    0.0000    0.0000 O   0  0  0  0  0  0  0  0  0  0  0  0
    0.0000    0.0000    0.0000 P   0  0  0  0  0  0  0  0  0  0  0  0
    0.0000    0.0000    0.0000 S   0  0  0  0  0  0  0  0  0  0  0  0
    0.0000    0.0000    0.0000 S   0  0  0  0  0  0  0  0  0  0  0  0
    0.0000    0.0000    0.0000 S   0  0  0  0  0  0  0  0  0  0  0  0
  4  1  1  0  0  0  0 
  5  2  1  0  0  0  0 
  6  5  2  0  0  0  0 
  9  4  1  0  0  0  0 
 10  7  2  0  0  0  0 
 10  8  2  0  0  0  0 
 10  9  1  0  0  0  0 
 11  3  1  0  0  0  0 
 11  6  1  0  0  0  0 
 12  5  1  0  0  0  0 
 12  7  1  0  0  0  0 
 13  6  1  0  0  0  0 
 13  7  1  0  0  0  0 
M  END
> <NumberPeaksExplained>
1

> <PeaksExplained>
236.96245_999.0

> <FragmentMolecularFormulas>
236.96245:[C7H11OPS3-H]+

> <Score>
0.14321135761577258

> <XlogP3>
1.8

> <InChI>
InChI=1S/C7H11O2PS3/c1-4-9-10(8)7-12-5(2)6(11-3)13-7/h4H2,1-3H3

> <FragmenterScore_Values>
644.0

> <MaximumTreeDepth>
2

> <MonoisotopicMass>
253.965879

> <CompoundName>
NA

> <Identifier>
88115024

> <SimScore>
0.3346

> <MolecularFormula>
C7H11O2PS3

> <SMILES>
CCO/P(=C\1/SC(=C(S1)SC)C)=O

> <InChIKey2>
UHFFFAOYSA

> <InChIKey1>
RAGYHZLJEHRUSL

> <FragmenterScore>
171.47079369649745

> <NumberPeaksUsed>
22

$$$$

  CDK     0427161240

 14 14  0  0  0  0  0  0  0  0999 V2000
    0.0000    0.0000    0.0000 C   0  0  0  0  0  0  0  0  0  0  0  0
    0.0000    0.0000    0.0000 C   0  0  0  0  0  0  0  0  0  0  0  0
    0.0000    0.0000    0.0000 C   0  0  0  0  0  0  0  0  0  0  0  0
    0.0000    0.0000    0.0000 C   0  0  0  0  0  0  0  0  0  0  0  0
    0.0000    0.0000    0.0000 C   0  0  0  0  0  0  0  0  0  0  0  0
    0.0000    0.0000    0.0000 C   0  0  0  0  0  0  0  0  0  0  0  0
    0.0000    0.0000    0.0000 C   0  0  0  0  0  0  0  0  0  0  0  0
    0.0000    0.0000    0.0000 C   0  0  0  0  0  0  0  0  0  0  0  0
    0.0000    0.0000    0.0000 Cl  0  0  0  0  0  0  0  0  0  0  0  0
    0.0000    0.0000    0.0000 Cl  0  0  0  0  0  0  0  0  0  0  0  0
    0.0000    0.0000    0.0000 O   0  0  0  0  0  0  0  0  0  0  0  0
    0.0000    0.0000    0.0000 O   0  0  0  0  0  0  0  0  0  0  0  0
    0.0000    0.0000    0.0000 O   0  0  0  0  0  0  0  0  0  0  0  0
    0.0000    0.0000    0.0000 P   0  0  0  0  0  0  0  0  0  0  0  0
  2  1  1  0  0  0  0 
  5  3  1  0  0  0  0 
  6  4  2  0  0  0  0 
  7  3  2  0  0  0  0 
  7  4  1  0  0  0  0 
  8  5  2  0  0  0  0 
  8  6  1  0  0  0  0 
  9  7  1  0  0  0  0 
 12  2  1  0  0  0  0 
 13  8  1  0  0  0  0 
 14 10  1  0  0  0  0 
 14 11  2  0  0  0  0 
 14 12  1  0  0  0  0 
 14 13  1  0  0  0  0 
M  END
> <NumberPeaksExplained>
1

> <PeaksExplained>
236.96245_999.0

> <FragmentMolecularFormulas>
236.96245:[C8H9Cl2O2P-H]+

> <Score>
0.14321135761577258

> <XlogP3>
3.1

> <InChI>
InChI=1S/C8H9Cl2O3P/c1-2-12-14(10,11)13-8-5-3-7(9)4-6-8/h3-6H,2H2,1H3

> <FragmenterScore_Values>
644.0

> <MaximumTreeDepth>
2

> <MonoisotopicMass>
253.966636

> <CompoundName>
1-chloro-4-[chloro(ethoxy)phosphoryl]oxy-benzene

> <Identifier>
85702239

> <SimScore>
0.3346

> <MolecularFormula>
C8H9Cl2O3P

> <SMILES>
CCOP(=O)(OC1=CC=C(C=C1)Cl)Cl

> <InChIKey2>
UHFFFAOYSA

> <InChIKey1>
AUMWETXPQCQMIW

> <FragmenterScore>
171.47079369649745

> <NumberPeaksUsed>
22

$$$$

  CDK     0427161240

 14 14  0  0  0  0  0  0  0  0999 V2000
    0.0000    0.0000    0.0000 C   0  0  0  0  0  0  0  0  0  0  0  0
    0.0000    0.0000    0.0000 C   0  0  0  0  0  0  0  0  0  0  0  0
    0.0000    0.0000    0.0000 C   0  0  0  0  0  0  0  0  0  0  0  0
    0.0000    0.0000    0.0000 C   0  0  0  0  0  0  0  0  0  0  0  0
    0.0000    0.0000    0.0000 C   0  0  0  0  0  0  0  0  0  0  0  0
    0.0000    0.0000    0.0000 C   0  0  0  0  0  0  0  0  0  0  0  0
    0.0000    0.0000    0.0000 C   0  0  0  0  0  0  0  0  0  0  0  0
    0.0000    0.0000    0.0000 C   0  0  0  0  0  0  0  0  0  0  0  0
    0.0000    0.0000    0.0000 Cl  0  0  0  0  0  0  0  0  0  0  0  0
    0.0000    0.0000    0.0000 Cl  0  0  0  0  0  0  0  0  0  0  0  0
    0.0000    0.0000    0.0000 O   0  0  0  0  0  0  0  0  0  0  0  0
    0.0000    0.0000    0.0000 O   0  0  0  0  0  0  0  0  0  0  0  0
    0.0000    0.0000    0.0000 O   0  0  0  0  0  0  0  0  0  0  0  0
    0.0000    0.0000    0.0000 P   0  0  0  0  0  0  0  0  0  0  0  0
  2  1  2  0  0  0  0 
  3  1  1  0  0  0  0 
  4  2  1  0  0  0  0 
  5  3  2  0  0  0  0 
  7  6  1  0  0  0  0 
  8  4  2  0  0  0  0 
  8  5  1  0  0  0  0 
  9  6  1  0  0  0  0 
 12  7  1  0  0  0  0 
 13  8  1  0  0  0  0 
 14 10  1  0  0  0  0 
 14 11  2  0  0  0  0 
 14 12  1  0  0  0  0 
 14 13  1  0  0  0  0 
M  END
> <NumberPeaksExplained>
1

> <PeaksExplained>
236.96245_999.0

> <FragmentMolecularFormulas>
236.96245:[C8H9Cl2O2P-H]+

> <Score>
0.14321135761577258

> <XlogP3>
2.7

> <InChI>
InChI=1S/C8H9Cl2O3P/c9-6-7-12-14(10,11)13-8-4-2-1-3-5-8/h1-5H,6-7H2

> <FragmenterScore_Values>
644.0

> <MaximumTreeDepth>
2

> <MonoisotopicMass>
253.966636

> <CompoundName>
[chloro(2-chloroethoxy)phosphoryl]oxybenzene

> <Identifier>
13587169

> <SimScore>
0.3346

> <MolecularFormula>
C8H9Cl2O3P

> <SMILES>
C1=CC=C(C=C1)OP(=O)(OCCCl)Cl

> <InChIKey2>
UHFFFAOYSA

> <InChIKey1>
ITTKFFLHTPTKDV

> <FragmenterScore>
171.47079369649745

> <NumberPeaksUsed>
22

$$$$

  CDK     0427161240

 14 13  0  0  0  0  0  0  0  0999 V2000
    0.0000    0.0000    0.0000 C   0  0  0  0  0  0  0  0  0  0  0  0
    0.0000    0.0000    0.0000 C   0  0  0  0  0  0  0  0  0  0  0  0
    0.0000    0.0000    0.0000 C   0  0  0  0  0  0  0  0  0  0  0  0
    0.0000    0.0000    0.0000 C   0  0  0  0  0  0  0  0  0  0  0  0
    0.0000    0.0000    0.0000 C   0  0  0  0  0  0  0  0  0  0  0  0
    0.0000    0.0000    0.0000 C   0  0  0  0  0  0  0  0  0  0  0  0
    0.0000    0.0000    0.0000 C   0  0  0  0  0  0  0  0  0  0  0  0
    0.0000    0.0000    0.0000 C   0  0  0  0  0  0  0  0  0  0  0  0
    0.0000    0.0000    0.0000 C   0  0  0  0  0  0  0  0  0  0  0  0
    0.0000    0.0000    0.0000 Cl  0  0  0  0  0  0  0  0  0  0  0  0
    0.0000    0.0000    0.0000 Cl  0  0  0  0  0  0  0  0  0  0  0  0
    0.0000    0.0000    0.0000 Cl  0  0  0  0  0  0  0  0  0  0  0  0
    0.0000    0.0000    0.0000 O   0  0  0  0  0  0  0  0  0  0  0  0
    0.0000    0.0000    0.0000 O   0  0  0  0  0  0  0  0  0  0  0  0
  2  1  2  0  0  0  0 
  3  2  1  0  0  0  0 
  4  3  2  0  0  0  0 
  6  5  2  0  0  0  0 
  7  4  1  0  0  0  0 
  8  5  1  0  0  0  0 
  9  6  1  0  0  0  0 
 10  9  1  0  0  0  0 
 11  9  1  0  0  0  0 
 12  9  1  0  0  0  0 
 13  8  2  0  0  0  0 
 14  7  1  0  0  0  0 
 14  8  1  0  0  0  0 
M  END
> <NumberPeaksExplained>
2

> <PeaksExplained>
106.94476_274.0;236.96245_999.0

> <FragmentMolecularFormulas>
106.94476:[C3H2Cl2-H]+;236.96245:[C9H9Cl3O-H]+

> <Score>
0.14025005794946593

> <XlogP3>
3.5

> <InChI>
InChI=1S/C9H9Cl3O2/c1-2-3-4-7-14-8(13)5-6-9(10,11)12/h2-6H,1,7H2

> <FragmenterScore_Values>
786.0;843.0

> <MaximumTreeDepth>
2

> <MonoisotopicMass>
253.966813

> <CompoundName>
penta-2,4-dienyl 4,4,4-trichlorobut-2-enoate

> <Identifier>
86084300

> <SimScore>
0.347

> <MolecularFormula>
C9H9Cl3O2

> <SMILES>
C=CC=CCOC(=O)C=CC(Cl)(Cl)Cl

> <InChIKey2>
UHFFFAOYSA

> <InChIKey1>
QJSQJNRLIPTBOM

> <FragmenterScore>
167.92515030194832

> <NumberPeaksUsed>
22

$$$$

  CDK     0427161240

 14 13  0  0  0  0  0  0  0  0999 V2000
    0.0000    0.0000    0.0000 C   0  0  0  0  0  0  0  0  0  0  0  0
    0.0000    0.0000    0.0000 C   0  0  0  0  0  0  0  0  0  0  0  0
    0.0000    0.0000    0.0000 C   0  0  0  0  0  0  0  0  0  0  0  0
    0.0000    0.0000    0.0000 C   0  0  0  0  0  0  0  0  0  0  0  0
    0.0000    0.0000    0.0000 C   0  0  0  0  0  0  0  0  0  0  0  0
    0.0000    0.0000    0.0000 C   0  0  0  0  0  0  0  0  0  0  0  0
    0.0000    0.0000    0.0000 C   0  0  0  0  0  0  0  0  0  0  0  0
    0.0000    0.0000    0.0000 C   0  0  0  0  0  0  0  0  0  0  0  0
    0.0000    0.0000    0.0000 C   0  0  0  0  0  0  0  0  0  0  0  0
    0.0000    0.0000    0.0000 Cl  0  0  0  0  0  0  0  0  0  0  0  0
    0.0000    0.0000    0.0000 Cl  0  0  0  0  0  0  0  0  0  0  0  0
    0.0000    0.0000    0.0000 Cl  0  0  0  0  0  0  0  0  0  0  0  0
    0.0000    0.0000    0.0000 O   0  0  0  0  0  0  0  0  0  0  0  0
    0.0000    0.0000    0.0000 O   0  0  0  0  0  0  0  0  0  0  0  0
  2  1  3  0  0  0  0 
  3  2  1  0  0  0  0 
  4  3  1  0  0  0  0 
  5  4  1  0  0  0  0 
  7  6  1  0  0  0  0 
  8  6  1  0  0  0  0 
  9  7  2  0  0  0  0 
 10  7  1  0  0  0  0 
 11  9  1  0  0  0  0 
 12  9  1  0  0  0  0 
 13  8  2  0  0  0  0 
 14  5  1  0  0  0  0 
 14  8  1  0  0  0  0 
M  END
> <NumberPeaksExplained>
2

> <PeaksExplained>
106.94476_274.0;236.96245_999.0

> <FragmentMolecularFormulas>
106.94476:[C3H2Cl2-H]+;236.96245:[C9H9Cl3O-H]+

> <Score>
0.14025005794946593

> <XlogP3>
3.3

> <InChI>
InChI=1S/C9H9Cl3O2/c1-2-3-4-5-14-8(13)6-7(10)9(11)12/h1H,3-6H2

> <FragmenterScore_Values>
786.0;843.0

> <MaximumTreeDepth>
2

> <MonoisotopicMass>
253.966813

> <CompoundName>
pent-4-ynyl 3,4,4-trichlorobut-3-enoate

> <Identifier>
4189310

> <SimScore>
0.347

> <MolecularFormula>
C9H9Cl3O2

> <SMILES>
C#CCCCOC(=O)CC(=C(Cl)Cl)Cl

> <InChIKey2>
UHFFFAOYSA

> <InChIKey1>
JRNNYCLWTNDDAJ

> <FragmenterScore>
167.92515030194832

> <NumberPeaksUsed>
22

$$$$

  CDK     0427161240

 14 15  0  0  0  0  0  0  0  0999 V2000
    0.0000    0.0000    0.0000 C   0  0  0  0  0  0  0  0  0  0  0  0
    0.0000    0.0000    0.0000 C   0  0  0  0  0  0  0  0  0  0  0  0
    0.0000    0.0000    0.0000 C   0  0  0  0  0  0  0  0  0  0  0  0
    0.0000    0.0000    0.0000 C   0  0  0  0  0  0  0  0  0  0  0  0
    0.0000    0.0000    0.0000 C   0  0  0  0  0  0  0  0  0  0  0  0
    0.0000    0.0000    0.0000 C   0  0  0  0  0  0  0  0  0  0  0  0
    0.0000    0.0000    0.0000 C   0  0  0  0  0  0  0  0  0  0  0  0
    0.0000    0.0000    0.0000 C   0  0  0  0  0  0  0  0  0  0  0  0
    0.0000    0.0000    0.0000 Cl  0  0  0  0  0  0  0  0  0  0  0  0
    0.0000    0.0000    0.0000 Cl  0  0  0  0  0  0  0  0  0  0  0  0
    0.0000    0.0000    0.0000 O   0  0  0  0  0  0  0  0  0  0  0  0
    0.0000    0.0000    0.0000 O   0  0  0  0  0  0  0  0  0  0  0  0
    0.0000    0.0000    0.0000 O   0  0  0  0  0  0  0  0  0  0  0  0
    0.0000    0.0000    0.0000 P   0  0  0  0  0  0  0  0  0  0  0  0
  2  1  1  0  0  0  0 
  4  3  2  0  0  0  0 
  5  3  1  0  0  0  0 
  6  4  1  0  0  0  0 
  7  5  2  0  0  0  0 
  8  6  2  0  0  0  0 
  8  7  1  0  0  0  0 
 11  2  1  0  0  0  0 
 12  7  1  0  0  0  0 
 13  8  1  0  0  0  0 
 14  9  1  0  0  0  0 
 14 10  1  0  0  0  0 
 14 11  1  0  0  0  0 
 14 12  1  0  0  0  0 
 14 13  1  0  0  0  0 
M  END
> <NumberPeaksExplained>
1

> <PeaksExplained>
236.96245_999.0

> <FragmentMolecularFormulas>
236.96245:[C8H9Cl2O2P-H]+

> <Score>
0.1297123325141423

> <XlogP3>
3.8

> <InChI>
InChI=1S/C8H9Cl2O3P/c1-2-11-14(9,10)12-7-5-3-4-6-8(7)13-14/h3-6H,2H2,1H3

> <FragmenterScore_Values>
795.0

> <MaximumTreeDepth>
2

> <MonoisotopicMass>
253.966636

> <CompoundName>
2,2-dichloro-2-ethoxy-1,3,2$l^{5}-benzodioxaphosphole

> <Identifier>
23413684

> <SimScore>
0.3346

> <MolecularFormula>
C8H9Cl2O3P

> <SMILES>
CCOP1(OC2=CC=CC=C2O1)(Cl)Cl

> <InChIKey2>
UHFFFAOYSA

> <InChIKey1>
JMIGDICSVNTKBF

> <FragmenterScore>
155.30804943625756

> <NumberPeaksUsed>
22

$$$$

  CDK     0427161240

 10 10  0  0  0  0  0  0  0  0999 V2000
    0.0000    0.0000    0.0000 C   0  0  0  0  0  0  0  0  0  0  0  0
    0.0000    0.0000    0.0000 C   0  0  0  0  0  0  0  0  0  0  0  0
    0.0000    0.0000    0.0000 C   0  0  0  0  0  0  0  0  0  0  0  0
    0.0000    0.0000    0.0000 C   0  0  0  0  0  0  0  0  0  0  0  0
    0.0000    0.0000    0.0000 I   0  0  0  0  0  0  0  0  0  0  0  0
    0.0000    0.0000    0.0000 N   0  0  0  0  0  0  0  0  0  0  0  0
    0.0000    0.0000    0.0000 N   0  0  0  0  0  0  0  0  0  0  0  0
    0.0000    0.0000    0.0000 N   0  0  0  0  0  0  0  0  0  0  0  0
    0.0000    0.0000    0.0000 N   0  0  0  0  0  0  0  0  0  0  0  0
    0.0000    0.0000    0.0000 O   0  0  0  0  0  0  0  0  0  0  0  0
  3  2  1  0  0  0  0 
  5  2  1  0  0  0  0 
  7  6  2  0  0  0  0 
  8  1  1  0  0  0  0 
  8  4  1  0  0  0  0 
  8  6  1  0  0  0  0 
  9  3  1  0  0  0  0 
  9  4  1  0  0  0  0 
  9  7  1  0  0  0  0 
 10  4  2  0  0  0  0 
M  END
> <NumberPeaksExplained>
1

> <PeaksExplained>
236.96245_999.0

> <FragmentMolecularFormulas>
236.96245:[C4H7IN4-H]+

> <Score>
0.12618707087185257

> <XlogP3>
1.4

> <InChI>
InChI=1S/C4H7IN4O/c1-8-4(10)9(3-2-5)7-6-8/h2-3H2,1H3

> <FragmenterScore_Values>
843.0

> <MaximumTreeDepth>
2

> <MonoisotopicMass>
253.966459

> <CompoundName>
1-(2-iodoethyl)-4-methyl-tetrazol-5-one

> <Identifier>
13676719

> <SimScore>
0.3346

> <MolecularFormula>
C4H7IN4O

> <SMILES>
CN1C(=O)N(N=N1)CCI

> <InChIKey2>
UHFFFAOYSA

> <InChIKey1>
WLGREALAOVWKDB

> <FragmenterScore>
151.08715926487173

> <NumberPeaksUsed>
22

$$$$

  CDK     0427161240

 16 17  0  0  0  0  0  0  0  0999 V2000
    0.0000    0.0000    0.0000 C   0  0  0  0  0  0  0  0  0  0  0  0
    0.0000    0.0000    0.0000 C   0  0  0  0  0  0  0  0  0  0  0  0
    0.0000    0.0000    0.0000 C   0  0  0  0  0  0  0  0  0  0  0  0
    0.0000    0.0000    0.0000 C   0  0  0  0  0  0  0  0  0  0  0  0
    0.0000    0.0000    0.0000 C   0  0  0  0  0  0  0  0  0  0  0  0
    0.0000    0.0000    0.0000 C   0  0  0  0  0  0  0  0  0  0  0  0
    0.0000    0.0000    0.0000 C   0  0  0  0  0  0  0  0  0  0  0  0
    0.0000    0.0000    0.0000 C   0  0  0  0  0  0  0  0  0  0  0  0
    0.0000    0.0000    0.0000 Cl  0  0  0  0  0  0  0  0  0  0  0  0
    0.0000    0.0000    0.0000 F   0  0  0  0  0  0  0  0  0  0  0  0
    0.0000    0.0000    0.0000 F   0  0  0  0  0  0  0  0  0  0  0  0
    0.0000    0.0000    0.0000 F   0  0  0  0  0  0  0  0  0  0  0  0
    0.0000    0.0000    0.0000 F   0  0  0  0  0  0  0  0  0  0  0  0
    0.0000    0.0000    0.0000 F   0  0  0  0  0  0  0  0  0  0  0  0
    0.0000    0.0000    0.0000 N   0  0  0  0  0  0  0  0  0  0  0  0
    0.0000    0.0000    0.0000 N   0  0  0  0  0  0  0  0  0  0  0  0
  2  1  2  0  0  0  0 
  3  2  1  0  0  0  0 
  4  3  2  0  0  0  0 
  5  1  1  0  0  0  0 
  6  4  1  0  0  0  0 
  6  5  1  0  0  0  0 
  8  7  2  0  0  0  0 
  9  1  1  0  0  0  0 
 10  2  1  0  0  0  0 
 11  3  1  0  0  0  0 
 12  4  1  0  0  0  0 
 13  7  1  0  0  0  0 
 14  8  1  0  0  0  0 
 15  5  2  0  0  0  0 
 15  7  1  0  0  0  0 
 16  6  2  0  0  0  0 
 16  8  1  0  0  0  0 
M  END
> <NumberPeaksExplained>
5

> <PeaksExplained>
90.97445_681.0;117.9854_384.0;143.98846_478.0;144.99625_352.0;178.97725_391.0

> <FragmentMolecularFormulas>
90.97445:[C3ClF]+H+;117.9854:[C4ClFN+H]+H+;143.98846:[C5ClFN2+H]+H+;144.99625:[C5ClFN2+2H]+H+;178.97725:[C6F5N-2H]+

> <Score>
0.091144303739789

> <XlogP3>
3.0

> <InChI>
InChI=1S/C8ClF5N2/c9-1-2(10)3(11)4(12)6-5(1)15-7(13)8(14)16-6

> <FragmenterScore_Values>
1708.0;2649.0;2549.0;1808.0;1908.0

> <MaximumTreeDepth>
2

> <MonoisotopicMass>
253.967017

> <CompoundName>
5-chloro-2,3,6,7,8-pentafluoro-quinoxaline

> <Identifier>
21730705

> <SimScore>
0.3539

> <MolecularFormula>
C8ClF5N2

> <SMILES>
C12=C(C(=C(C(=C1F)F)F)Cl)N=C(C(=N2)F)F

> <InChIKey2>
UHFFFAOYSA

> <InChIKey1>
XQSVDCXBQBHULS

> <FragmenterScore>
109.12951572672618

> <NumberPeaksUsed>
22

$$$$

  CDK     0427161240

 14 14  0  0  0  0  0  0  0  0999 V2000
    0.0000    0.0000    0.0000 C   0  0  0  0  0  0  0  0  0  0  0  0
    0.0000    0.0000    0.0000 C   0  0  0  0  0  0  0  0  0  0  0  0
    0.0000    0.0000    0.0000 C   0  0  0  0  0  0  0  0  0  0  0  0
    0.0000    0.0000    0.0000 C   0  0  0  0  0  0  0  0  0  0  0  0
    0.0000    0.0000    0.0000 C   0  0  0  0  0  0  0  0  0  0  0  0
    0.0000    0.0000    0.0000 C   0  0  0  0  0  0  0  0  0  0  0  0
    0.0000    0.0000    0.0000 C   0  0  0  0  0  0  0  0  0  0  0  0
    0.0000    0.0000    0.0000 C   0  0  0  0  0  0  0  0  0  0  0  0
    0.0000    0.0000    0.0000 C   0  0  0  0  0  0  0  0  0  0  0  0
    0.0000    0.0000    0.0000 Cl  0  0  0  0  0  0  0  0  0  0  0  0
    0.0000    0.0000    0.0000 Cl  0  0  0  0  0  0  0  0  0  0  0  0
    0.0000    0.0000    0.0000 Cl  0  0  0  0  0  0  0  0  0  0  0  0
    0.0000    0.0000    0.0000 O   0  0  0  0  0  0  0  0  0  0  0  0
    0.0000    0.0000    0.0000 O   0  0  0  0  0  0  0  0  0  0  0  0
  3  2  1  0  0  0  0 
  6  4  2  0  0  0  0 
  7  5  2  0  0  0  0 
  7  6  1  0  0  0  0 
  8  4  1  0  0  0  0 
  9  5  1  0  0  0  0 
  9  8  2  0  0  0  0 
 10  6  1  0  0  0  0 
 11  7  1  0  0  0  0 
 12  8  1  0  0  0  0 
 13  1  1  0  0  0  0 
 13  2  1  0  0  0  0 
 14  3  1  0  0  0  0 
 14  9  1  0  0  0  0 
M  END
> <NumberPeaksExplained>
1

> <PeaksExplained>
106.94476_274.0

> <FragmentMolecularFormulas>
106.94476:[C3HCl2]+

> <Score>
0.01142007373421014

> <XlogP3>
3.6

> <InChI>
InChI=1S/C9H9Cl3O2/c1-13-2-3-14-9-5-7(11)6(10)4-8(9)12/h4-5H,2-3H2,1H3

> <FragmenterScore_Values>
1224.0

> <MaximumTreeDepth>
2

> <MonoisotopicMass>
253.966813

> <CompoundName>
1,2,4-trichloro-5-(2-methoxyethoxy)benzene

> <Identifier>
78827567

> <SimScore>
0.0918

> <MolecularFormula>
C9H9Cl3O2

> <SMILES>
COCCOC1=CC(=C(C=C1Cl)Cl)Cl

> <InChIKey2>
UHFFFAOYSA

> <InChIKey1>
DGIFSBDPGCBNCY

> <FragmenterScore>
13.67356011337657

> <NumberPeaksUsed>
22

$$$$

  CDK     0427161240

 14 14  0  0  0  0  0  0  0  0999 V2000
    0.0000    0.0000    0.0000 C   0  0  0  0  0  0  0  0  0  0  0  0
    0.0000    0.0000    0.0000 C   0  0  0  0  0  0  0  0  0  0  0  0
    0.0000    0.0000    0.0000 C   0  0  0  0  0  0  0  0  0  0  0  0
    0.0000    0.0000    0.0000 C   0  0  0  0  0  0  0  0  0  0  0  0
    0.0000    0.0000    0.0000 C   0  0  0  0  0  0  0  0  0  0  0  0
    0.0000    0.0000    0.0000 C   0  0  0  0  0  0  0  0  0  0  0  0
    0.0000    0.0000    0.0000 C   0  0  0  0  0  0  0  0  0  0  0  0
    0.0000    0.0000    0.0000 C   0  0  0  0  0  0  0  0  0  0  0  0
    0.0000    0.0000    0.0000 C   0  0  0  0  0  0  0  0  0  0  0  0
    0.0000    0.0000    0.0000 Cl  0  0  0  0  0  0  0  0  0  0  0  0
    0.0000    0.0000    0.0000 Cl  0  0  0  0  0  0  0  0  0  0  0  0
    0.0000    0.0000    0.0000 Cl  0  0  0  0  0  0  0  0  0  0  0  0
    0.0000    0.0000    0.0000 O   0  0  0  0  0  0  0  0  0  0  0  0
    0.0000    0.0000    0.0000 O   0  0  0  0  0  0  0  0  0  0  0  0
  6  2  2  0  0  0  0 
  6  4  1  0  0  0  0 
  7  2  1  0  0  0  0 
  7  3  2  0  0  0  0 
  8  3  1  0  0  0  0 
  9  6  1  0  0  0  0 
  9  8  2  0  0  0  0 
 10  4  1  0  0  0  0 
 11  7  1  0  0  0  0 
 12  8  1  0  0  0  0 
 13  1  1  0  0  0  0 
 13  5  1  0  0  0  0 
 14  5  1  0  0  0  0 
 14  9  1  0  0  0  0 
M  END
> <NumberPeaksExplained>
1

> <PeaksExplained>
106.94476_274.0

> <FragmentMolecularFormulas>
106.94476:[C3HCl2]+

> <Score>
0.01142007373421014

> <XlogP3>
3.5

> <InChI>
InChI=1S/C9H9Cl3O2/c1-13-5-14-9-6(4-10)2-7(11)3-8(9)12/h2-3H,4-5H2,1H3

> <FragmenterScore_Values>
1224.0

> <MaximumTreeDepth>
2

> <MonoisotopicMass>
253.966813

> <CompoundName>
1,5-dichloro-3-(chloromethyl)-2-(methoxymethoxy)benzene

> <Identifier>
65364337

> <SimScore>
0.0918

> <MolecularFormula>
C9H9Cl3O2

> <SMILES>
COCOC1=C(C=C(C=C1CCl)Cl)Cl

> <InChIKey2>
UHFFFAOYSA

> <InChIKey1>
BFYTVFYTPMBLRS

> <FragmenterScore>
13.67356011337657

> <NumberPeaksUsed>
22

$$$$

  CDK     0427161240

 14 14  0  0  0  0  0  0  0  0999 V2000
    0.0000    0.0000    0.0000 C   0  0  0  0  0  0  0  0  0  0  0  0
    0.0000    0.0000    0.0000 C   0  0  0  0  0  0  0  0  0  0  0  0
    0.0000    0.0000    0.0000 C   0  0  0  0  0  0  0  0  0  0  0  0
    0.0000    0.0000    0.0000 C   0  0  0  0  0  0  0  0  0  0  0  0
    0.0000    0.0000    0.0000 C   0  0  0  0  0  0  0  0  0  0  0  0
    0.0000    0.0000    0.0000 C   0  0  0  0  0  0  0  0  0  0  0  0
    0.0000    0.0000    0.0000 C   0  0  0  0  0  0  0  0  0  0  0  0
    0.0000    0.0000    0.0000 C   0  0  0  0  0  0  0  0  0  0  0  0
    0.0000    0.0000    0.0000 C   0  0  0  0  0  0  0  0  0  0  0  0
    0.0000    0.0000    0.0000 Cl  0  0  0  0  0  0  0  0  0  0  0  0
    0.0000    0.0000    0.0000 Cl  0  0  0  0  0  0  0  0  0  0  0  0
    0.0000    0.0000    0.0000 Cl  0  0  0  0  0  0  0  0  0  0  0  0
    0.0000    0.0000    0.0000 O   0  0  0  0  0  0  0  0  0  0  0  0
    0.0000    0.0000    0.0000 O   0  0  0  0  0  0  0  0  0  0  0  0
  5  1  1  0  0  0  0 
  6  3  2  0  0  0  0 
  6  4  1  0  0  0  0 
  7  3  1  0  0  0  0 
  8  4  2  0  0  0  0 
  9  7  2  0  0  0  0 
  9  8  1  0  0  0  0 
 10  6  1  0  0  0  0 
 11  7  1  0  0  0  0 
 12  8  1  0  0  0  0 
 13  2  1  0  0  0  0 
 13  5  1  0  0  0  0 
 14  5  1  0  0  0  0 
 14  9  1  0  0  0  0 
M  END
> <NumberPeaksExplained>
1

> <PeaksExplained>
106.94476_274.0

> <FragmentMolecularFormulas>
106.94476:[C3HCl2]+

> <Score>
0.01142007373421014

> <XlogP3>
4.4

> <InChI>
InChI=1S/C9H9Cl3O2/c1-5(13-2)14-9-7(11)3-6(10)4-8(9)12/h3-5H,1-2H3

> <FragmenterScore_Values>
1224.0

> <MaximumTreeDepth>
2

> <MonoisotopicMass>
253.966813

> <CompoundName>
1,3,5-trichloro-2-(1-methoxyethoxy)benzene

> <Identifier>
57311000

> <SimScore>
0.0918

> <MolecularFormula>
C9H9Cl3O2

> <SMILES>
CC(OC)OC1=C(C=C(C=C1Cl)Cl)Cl

> <InChIKey2>
UHFFFAOYSA

> <InChIKey1>
YYTFIZXXPNNBTP

> <FragmenterScore>
13.67356011337657

> <NumberPeaksUsed>
22

$$$$

  CDK     0427161240

 14 14  0  0  0  0  0  0  0  0999 V2000
    0.0000    0.0000    0.0000 C   0  0  0  0  0  0  0  0  0  0  0  0
    0.0000    0.0000    0.0000 C   0  0  0  0  0  0  0  0  0  0  0  0
    0.0000    0.0000    0.0000 C   0  0  0  0  0  0  0  0  0  0  0  0
    0.0000    0.0000    0.0000 C   0  0  0  0  0  0  0  0  0  0  0  0
    0.0000    0.0000    0.0000 C   0  0  0  0  0  0  0  0  0  0  0  0
    0.0000    0.0000    0.0000 C   0  0  0  0  0  0  0  0  0  0  0  0
    0.0000    0.0000    0.0000 C   0  0  0  0  0  0  0  0  0  0  0  0
    0.0000    0.0000    0.0000 C   0  0  0  0  0  0  0  0  0  0  0  0
    0.0000    0.0000    0.0000 Cl  0  0  0  0  0  0  0  0  0  0  0  0
    0.0000    0.0000    0.0000 Cl  0  0  0  0  0  0  0  0  0  0  0  0
    0.0000    0.0000    0.0000 O   0  0  0  0  0  0  0  0  0  0  0  0
    0.0000    0.0000    0.0000 O   0  0  0  0  0  0  0  0  0  0  0  0
    0.0000    0.0000    0.0000 O   0  0  0  0  0  0  0  0  0  0  0  0
    0.0000    0.0000    0.0000 P   0  0  0  0  0  0  0  0  0  0  0  0
  4  3  2  0  0  0  0 
  6  3  1  0  0  0  0 
  6  5  2  0  0  0  0 
  7  5  1  0  0  0  0 
  8  4  1  0  0  0  0 
  8  7  2  0  0  0  0 
  9  6  1  0  0  0  0 
 10  7  1  0  0  0  0 
 11  1  1  0  0  0  0 
 12  2  1  0  0  0  0 
 13  8  1  0  0  0  0 
 14 11  1  0  0  0  0 
 14 12  1  0  0  0  0 
 14 13  1  0  0  0  0 
M  END
> <NumberPeaksExplained>
1

> <PeaksExplained>
106.94476_274.0

> <FragmentMolecularFormulas>
106.94476:[C3HCl2]+

> <Score>
0.01142007373421014

> <XlogP3>
3.1

> <InChI>
InChI=1S/C8H9Cl2O3P/c1-11-14(12-2)13-8-4-3-6(9)5-7(8)10/h3-5H,1-2H3

> <FragmenterScore_Values>
1224.0

> <MaximumTreeDepth>
2

> <MonoisotopicMass>
253.966636

> <CompoundName>
(2,4-dichlorophenyl) dimethyl phosphite

> <Identifier>
15108300

> <SimScore>
0.0918

> <MolecularFormula>
C8H9Cl2O3P

> <SMILES>
COP(OC)OC1=C(C=C(C=C1)Cl)Cl

> <InChIKey2>
UHFFFAOYSA

> <InChIKey1>
MRULQEZVZCFBOG

> <FragmenterScore>
13.67356011337657

> <NumberPeaksUsed>
22

$$$$

  CDK     0427161240

 14 14  0  0  0  0  0  0  0  0999 V2000
    0.0000    0.0000    0.0000 C   0  0  0  0  0  0  0  0  0  0  0  0
    0.0000    0.0000    0.0000 C   0  0  0  0  0  0  0  0  0  0  0  0
    0.0000    0.0000    0.0000 C   0  0  0  0  0  0  0  0  0  0  0  0
    0.0000    0.0000    0.0000 C   0  0  0  0  0  0  0  0  0  0  0  0
    0.0000    0.0000    0.0000 C   0  0  0  0  0  0  0  0  0  0  0  0
    0.0000    0.0000    0.0000 C   0  0  0  0  0  0  0  0  0  0  0  0
    0.0000    0.0000    0.0000 C   0  0  0  0  0  0  0  0  0  0  0  0
    0.0000    0.0000    0.0000 C   0  0  0  0  0  0  0  0  0  0  0  0
    0.0000    0.0000    0.0000 C   0  0  0  0  0  0  0  0  0  0  0  0
    0.0000    0.0000    0.0000 Cl  0  0  0  0  0  0  0  0  0  0  0  0
    0.0000    0.0000    0.0000 Cl  0  0  0  0  0  0  0  0  0  0  0  0
    0.0000    0.0000    0.0000 Cl  0  0  0  0  0  0  0  0  0  0  0  0
    0.0000    0.0000    0.0000 O   0  0  0  0  0  0  0  0  0  0  0  0
    0.0000    0.0000    0.0000 O   0  0  0  0  0  0  0  0  0  0  0  0
  3  2  1  0  0  0  0 
  6  4  2  0  0  0  0 
  6  5  1  0  0  0  0 
  7  4  1  0  0  0  0 
  8  5  2  0  0  0  0 
  9  7  2  0  0  0  0 
  9  8  1  0  0  0  0 
 10  6  1  0  0  0  0 
 11  7  1  0  0  0  0 
 12  8  1  0  0  0  0 
 13  1  1  0  0  0  0 
 13  2  1  0  0  0  0 
 14  3  1  0  0  0  0 
 14  9  1  0  0  0  0 
M  END
> <NumberPeaksExplained>
1

> <PeaksExplained>
106.94476_274.0

> <FragmentMolecularFormulas>
106.94476:[C3HCl2]+

> <Score>
0.01142007373421014

> <XlogP3>
3.9

> <InChI>
InChI=1S/C9H9Cl3O2/c1-13-2-3-14-9-7(11)4-6(10)5-8(9)12/h4-5H,2-3H2,1H3

> <FragmenterScore_Values>
1224.0

> <MaximumTreeDepth>
2

> <MonoisotopicMass>
253.966813

> <CompoundName>
1,3,5-trichloro-2-(2-methoxyethoxy)benzene

> <Identifier>
13938701

> <SimScore>
0.0918

> <MolecularFormula>
C9H9Cl3O2

> <SMILES>
COCCOC1=C(C=C(C=C1Cl)Cl)Cl

> <InChIKey2>
UHFFFAOYSA

> <InChIKey1>
BGWXOKDEMDEOGB

> <FragmenterScore>
13.67356011337657

> <NumberPeaksUsed>
22

$$$$

  CDK     0427161240

 14 14  0  0  0  0  0  0  0  0999 V2000
    0.0000    0.0000    0.0000 C   0  0  0  0  0  0  0  0  0  0  0  0
    0.0000    0.0000    0.0000 C   0  0  0  0  0  0  0  0  0  0  0  0
    0.0000    0.0000    0.0000 C   0  0  0  0  0  0  0  0  0  0  0  0
    0.0000    0.0000    0.0000 C   0  0  0  0  0  0  0  0  0  0  0  0
    0.0000    0.0000    0.0000 C   0  0  0  0  0  0  0  0  0  0  0  0
    0.0000    0.0000    0.0000 C   0  0  0  0  0  0  0  0  0  0  0  0
    0.0000    0.0000    0.0000 C   0  0  0  0  0  0  0  0  0  0  0  0
    0.0000    0.0000    0.0000 C   0  0  0  0  0  0  0  0  0  0  0  0
    0.0000    0.0000    0.0000 C   0  0  0  0  0  0  0  0  0  0  0  0
    0.0000    0.0000    0.0000 Cl  0  0  0  0  0  0  0  0  0  0  0  0
    0.0000    0.0000    0.0000 Cl  0  0  0  0  0  0  0  0  0  0  0  0
    0.0000    0.0000    0.0000 Cl  0  0  0  0  0  0  0  0  0  0  0  0
    0.0000    0.0000    0.0000 O   0  0  0  0  0  0  0  0  0  0  0  0
    0.0000    0.0000    0.0000 O   0  0  0  0  0  0  0  0  0  0  0  0
  2  1  2  0  0  0  0 
  4  3  1  0  0  0  0 
  7  1  1  0  0  0  0 
  7  5  2  0  0  0  0 
  8  5  1  0  0  0  0 
  9  2  1  0  0  0  0 
  9  8  2  0  0  0  0 
 10  3  1  0  0  0  0 
 11  7  1  0  0  0  0 
 12  8  1  0  0  0  0 
 13  4  1  0  0  0  0 
 13  6  1  0  0  0  0 
 14  6  1  0  0  0  0 
 14  9  1  0  0  0  0 
M  END
> <NumberPeaksExplained>
1

> <PeaksExplained>
106.94476_274.0

> <FragmentMolecularFormulas>
106.94476:[C3HCl2]+

> <Score>
0.01142007373421014

> <XlogP3>
4.2

> <InChI>
InChI=1S/C9H9Cl3O2/c10-3-4-13-6-14-9-2-1-7(11)5-8(9)12/h1-2,5H,3-4,6H2

> <FragmenterScore_Values>
1224.0

> <MaximumTreeDepth>
2

> <MonoisotopicMass>
253.966813

> <CompoundName>
2,4-dichloro-1-(2-chloroethoxymethoxy)benzene

> <Identifier>
350514

> <SimScore>
0.0918

> <MolecularFormula>
C9H9Cl3O2

> <SMILES>
C1=CC(=C(C=C1Cl)Cl)OCOCCCl

> <InChIKey2>
UHFFFAOYSA

> <InChIKey1>
GDDTWICTEQPREZ

> <FragmenterScore>
13.67356011337657

> <NumberPeaksUsed>
22

$$$$

  CDK     0427161240

 14 14  0  0  0  0  0  0  0  0999 V2000
    0.0000    0.0000    0.0000 C   0  0  0  0  0  0  0  0  0  0  0  0
    0.0000    0.0000    0.0000 C   0  0  0  0  0  0  0  0  0  0  0  0
    0.0000    0.0000    0.0000 C   0  0  0  0  0  0  0  0  0  0  0  0
    0.0000    0.0000    0.0000 C   0  0  0  0  0  0  0  0  0  0  0  0
    0.0000    0.0000    0.0000 C   0  0  0  0  0  0  0  0  0  0  0  0
    0.0000    0.0000    0.0000 C   0  0  0  0  0  0  0  0  0  0  0  0
    0.0000    0.0000    0.0000 C   0  0  0  0  0  0  0  0  0  0  0  0
    0.0000    0.0000    0.0000 C   0  0  0  0  0  0  0  0  0  0  0  0
    0.0000    0.0000    0.0000 C   0  0  0  0  0  0  0  0  0  0  0  0
    0.0000    0.0000    0.0000 Cl  0  0  0  0  0  0  0  0  0  0  0  0
    0.0000    0.0000    0.0000 Cl  0  0  0  0  0  0  0  0  0  0  0  0
    0.0000    0.0000    0.0000 Cl  0  0  0  0  0  0  0  0  0  0  0  0
    0.0000    0.0000    0.0000 O   0  0  0  0  0  0  0  0  0  0  0  0
    0.0000    0.0000    0.0000 O   0  0  0  0  0  0  0  0  0  0  0  0
  6  3  2  0  0  0  0 
  6  4  1  0  0  0  0 
  7  3  1  0  0  0  0 
  7  5  2  0  0  0  0 
  8  4  2  0  0  0  0 
  8  5  1  0  0  0  0 
  9  6  1  0  0  0  0 
 10  9  1  0  0  0  0 
 11  9  1  0  0  0  0 
 12  9  1  0  0  0  0 
 13  1  1  0  0  0  0 
 13  7  1  0  0  0  0 
 14  2  1  0  0  0  0 
 14  8  1  0  0  0  0 
M  END
> <NumberPeaksExplained>
1

> <PeaksExplained>
106.94476_274.0

> <FragmentMolecularFormulas>
106.94476:[C3HCl2]+

> <Score>
0.010183477084312779

> <XlogP3>
3.5

> <InChI>
InChI=1S/C9H9Cl3O2/c1-13-7-3-6(9(10,11)12)4-8(5-7)14-2/h3-5H,1-2H3

> <FragmenterScore_Values>
1562.0

> <MaximumTreeDepth>
2

> <MonoisotopicMass>
253.966813

> <CompoundName>
1,3-dimethoxy-5-(trichloromethyl)benzene

> <Identifier>
21516893

> <SimScore>
0.0918

> <MolecularFormula>
C9H9Cl3O2

> <SMILES>
COC1=CC(=CC(=C1)C(Cl)(Cl)Cl)OC

> <InChIKey2>
UHFFFAOYSA

> <InChIKey1>
VPHOEIZVHKLWMD

> <FragmenterScore>
12.192949828197785

> <NumberPeaksUsed>
22

$$$$

  CDK     0427161240

 14 13  0  0  0  0  0  0  0  0999 V2000
    0.0000    0.0000    0.0000 C   0  0  0  0  0  0  0  0  0  0  0  0
    0.0000    0.0000    0.0000 C   0  0  0  0  0  0  0  0  0  0  0  0
    0.0000    0.0000    0.0000 C   0  0  0  0  0  0  0  0  0  0  0  0
    0.0000    0.0000    0.0000 C   0  0  0  0  0  0  0  0  0  0  0  0
    0.0000    0.0000    0.0000 C   0  0  0  0  0  0  0  0  0  0  0  0
    0.0000    0.0000    0.0000 C   0  0  0  0  0  0  0  0  0  0  0  0
    0.0000    0.0000    0.0000 F   0  0  0  0  0  0  0  0  0  0  0  0
    0.0000    0.0000    0.0000 F   0  0  0  0  0  0  0  0  0  0  0  0
    0.0000    0.0000    0.0000 F   0  0  0  0  0  0  0  0  0  0  0  0
    0.0000    0.0000    0.0000 F   0  0  0  0  0  0  0  0  0  0  0  0
    0.0000    0.0000    0.0000 F   0  0  0  0  0  0  0  0  0  0  0  0
    0.0000    0.0000    0.0000 F   0  0  0  0  0  0  0  0  0  0  0  0
    0.0000    0.0000    0.0000 S   0  0  0  0  0  0  0  0  0  0  0  0
    0.0000    0.0000    0.0000 S   0  0  0  0  0  0  0  0  0  0  0  0
  3  1  2  0  0  0  0 
  4  2  2  0  0  0  0 
  5  3  1  0  0  0  0 
  6  4  1  0  0  0  0 
  7  5  1  0  0  0  0 
  8  5  1  0  0  0  0 
  9  5  1  0  0  0  0 
 10  6  1  0  0  0  0 
 11  6  1  0  0  0  0 
 12  6  1  0  0  0  0 
 13  3  1  0  0  0  0 
 14  4  1  0  0  0  0 
 14 13  1  0  0  0  0 
M  END
> <NumberPeaksExplained>
1

> <PeaksExplained>
115.98965_95.0

> <FragmentMolecularFormulas>
115.98965:[C2F3S+2H]+H+

> <Score>
0.007669647645633415

> <XlogP3>
3.7

> <InChI>
InChI=1S/C6H4F6S2/c1-3(5(7,8)9)13-14-4(2)6(10,11)12/h1-2H2

> <FragmenterScore_Values>
1038.0

> <MaximumTreeDepth>
2

> <MonoisotopicMass>
253.965861

> <CompoundName>
3,3,3-trifluoro-2-[1-(trifluoromethyl)vinyldisulfanyl]prop-1-ene

> <Identifier>
13699605

> <SimScore>
0.0318

> <MolecularFormula>
C6H4F6S2

> <SMILES>
C=C(C(F)(F)F)SSC(=C)C(F)(F)F

> <InChIKey2>
UHFFFAOYSA

> <InChIKey1>
NWTXIWGRSXHNPY

> <FragmenterScore>
9.18307452051131

> <NumberPeaksUsed>
22

$$$$

  CDK     0427161240

 13 13  0  0  0  0  0  0  0  0999 V2000
    0.0000    0.0000    0.0000 C   0  0  0  0  0  0  0  0  0  0  0  0
    0.0000    0.0000    0.0000 C   0  0  0  0  0  0  0  0  0  0  0  0
    0.0000    0.0000    0.0000 C   0  0  0  0  0  0  0  0  0  0  0  0
    0.0000    0.0000    0.0000 C   0  0  0  0  0  0  0  0  0  0  0  0
    0.0000    0.0000    0.0000 C   0  0  0  0  0  0  0  0  0  0  0  0
    0.0000    0.0000    0.0000 C   0  0  0  0  0  0  0  0  0  0  0  0
    0.0000    0.0000    0.0000 C   0  0  0  0  0  0  0  0  0  0  0  0
    0.0000    0.0000    0.0000 Br  0  0  0  0  0  0  0  0  0  0  0  0
    0.0000    0.0000    0.0000 F   0  0  0  0  0  0  0  0  0  0  0  0
    0.0000    0.0000    0.0000 F   0  0  0  0  0  0  0  0  0  0  0  0
    0.0000    0.0000    0.0000 F   0  0  0  0  0  0  0  0  0  0  0  0
    0.0000    0.0000    0.0000 N   0  0  0  0  0  0  0  0  0  0  0  0
    0.0000    0.0000    0.0000 N   0  0  0  0  0  0  0  0  0  0  0  0
  2  1  2  0  0  0  0 
  3  1  1  0  0  0  0 
  4  2  1  0  0  0  0 
  5  3  2  0  0  0  0 
  6  4  2  0  0  0  0 
  6  5  1  0  0  0  0 
  7  5  1  0  0  0  0 
  8  3  1  0  0  0  0 
  9  7  1  0  0  0  0 
 10  7  1  0  0  0  0 
 11  7  1  0  0  0  0 
 12  4  1  0  0  0  0 
 13  6  1  0  0  0  0 
M  END
> <NumberPeaksExplained>
0

> <PeaksExplained>
NA

> <FragmentMolecularFormulas>
NA

> <Score>
0.0

> <XlogP3>
2.1

> <InChI>
InChI=1S/C7H6BrF3N2/c8-3-1-2-4(12)6(13)5(3)7(9,10)11/h1-2H,12-13H2

> <FragmenterScore_Values>
NA

> <MaximumTreeDepth>
2

> <MonoisotopicMass>
253.966645

> <CompoundName>
4-bromo-3-(trifluoromethyl)benzene-1,2-diamine

> <Identifier>
91634080

> <SimScore>
0.0

> <MolecularFormula>
C7H6BrF3N2

> <SMILES>
C1=CC(=C(C(=C1N)N)C(F)(F)F)Br

> <InChIKey2>
UHFFFAOYSA

> <InChIKey1>
SZBGMYJEGZATAG

> <FragmenterScore>
0.0

> <NumberPeaksUsed>
22

$$$$

  CDK     0427161240

 13 13  0  0  0  0  0  0  0  0999 V2000
    0.0000    0.0000    0.0000 C   0  0  0  0  0  0  0  0  0  0  0  0
    0.0000    0.0000    0.0000 C   0  0  0  0  0  0  0  0  0  0  0  0
    0.0000    0.0000    0.0000 C   0  0  0  0  0  0  0  0  0  0  0  0
    0.0000    0.0000    0.0000 C   0  0  0  0  0  0  0  0  0  0  0  0
    0.0000    0.0000    0.0000 C   0  0  0  0  0  0  0  0  0  0  0  0
    0.0000    0.0000    0.0000 C   0  0  0  0  0  0  0  0  0  0  0  0
    0.0000    0.0000    0.0000 C   0  0  0  0  0  0  0  0  0  0  0  0
    0.0000    0.0000    0.0000 Br  0  0  0  0  0  0  0  0  0  0  0  0
    0.0000    0.0000    0.0000 F   0  0  0  0  0  0  0  0  0  0  0  0
    0.0000    0.0000    0.0000 F   0  0  0  0  0  0  0  0  0  0  0  0
    0.0000    0.0000    0.0000 F   0  0  0  0  0  0  0  0  0  0  0  0
    0.0000    0.0000    0.0000 N   0  0  0  0  0  0  0  0  0  0  0  0
    0.0000    0.0000    0.0000 N   0  0  0  0  0  0  0  0  0  0  0  0
  2  1  2  0  0  0  0 
  3  1  1  0  0  0  0 
  4  2  1  0  0  0  0 
  5  3  2  0  0  0  0 
  6  4  2  0  0  0  0 
  6  5  1  0  0  0  0 
  7  3  1  0  0  0  0 
  8  4  1  0  0  0  0 
  9  7  1  0  0  0  0 
 10  7  1  0  0  0  0 
 11  7  1  0  0  0  0 
 12  5  1  0  0  0  0 
 13  6  1  0  0  0  0 
M  END
> <NumberPeaksExplained>
0

> <PeaksExplained>
NA

> <FragmentMolecularFormulas>
NA

> <Score>
0.0

> <XlogP3>
2.1

> <InChI>
InChI=1S/C7H6BrF3N2/c8-4-2-1-3(7(9,10)11)5(12)6(4)13/h1-2H,12-13H2

> <FragmenterScore_Values>
NA

> <MaximumTreeDepth>
2

> <MonoisotopicMass>
253.966645

> <CompoundName>
3-bromo-6-(trifluoromethyl)benzene-1,2-diamine

> <Identifier>
90848532

> <SimScore>
0.0

> <MolecularFormula>
C7H6BrF3N2

> <SMILES>
C1=CC(=C(C(=C1C(F)(F)F)N)N)Br

> <InChIKey2>
UHFFFAOYSA

> <InChIKey1>
NJEDBNKXYQABSD

> <FragmenterScore>
0.0

> <NumberPeaksUsed>
22

$$$$

  CDK     0427161240

 14 14  0  0  0  0  0  0  0  0999 V2000
    0.0000    0.0000    0.0000 C   0  0  0  0  0  0  0  0  0  0  0  0
    0.0000    0.0000    0.0000 C   0  0  0  0  0  0  0  0  0  0  0  0
    0.0000    0.0000    0.0000 C   0  0  0  0  0  0  0  0  0  0  0  0
    0.0000    0.0000    0.0000 C   0  0  0  0  0  0  0  0  0  0  0  0
    0.0000    0.0000    0.0000 C   0  0  0  0  0  0  0  0  0  0  0  0
    0.0000    0.0000    0.0000 C   0  0  0  0  0  0  0  0  0  0  0  0
    0.0000    0.0000    0.0000 C   0  0  0  0  0  0  0  0  0  0  0  0
    0.0000    0.0000    0.0000 C   0  0  0  0  0  0  0  0  0  0  0  0
    0.0000    0.0000    0.0000 C   0  0  0  0  0  0  0  0  0  0  0  0
    0.0000    0.0000    0.0000 Cl  0  0  0  0  0  0  0  0  0  0  0  0
    0.0000    0.0000    0.0000 Cl  0  0  0  0  0  0  0  0  0  0  0  0
    0.0000    0.0000    0.0000 Cl  0  0  0  0  0  0  0  0  0  0  0  0
    0.0000    0.0000    0.0000 O   0  0  0  0  0  0  0  0  0  0  0  0
    0.0000    0.0000    0.0000 O   0  0  0  0  0  0  0  0  0  0  0  0
  2  1  1  0  0  0  0 
  4  3  2  0  0  0  0 
  5  3  1  0  0  0  0 
  6  4  1  0  0  0  0 
  7  5  2  0  0  0  0 
  8  6  2  0  0  0  0 
  8  7  1  0  0  0  0 
 10  9  1  0  0  0  0 
 11  9  1  0  0  0  0 
 12  9  1  0  0  0  0 
 13  2  1  0  0  0  0 
 13  7  1  0  0  0  0 
 14  8  1  0  0  0  0 
 14  9  1  0  0  0  0 
M  END
> <NumberPeaksExplained>
0

> <PeaksExplained>
NA

> <FragmentMolecularFormulas>
NA

> <Score>
0.0

> <XlogP3>
4.0

> <InChI>
InChI=1S/C9H9Cl3O2/c1-2-13-7-5-3-4-6-8(7)14-9(10,11)12/h3-6H,2H2,1H3

> <FragmenterScore_Values>
NA

> <MaximumTreeDepth>
2

> <MonoisotopicMass>
253.966813

> <CompoundName>
1-ethoxy-2-(trichloromethoxy)benzene

> <Identifier>
90754308

> <SimScore>
0.0

> <MolecularFormula>
C9H9Cl3O2

> <SMILES>
CCOC1=CC=CC=C1OC(Cl)(Cl)Cl

> <InChIKey2>
UHFFFAOYSA

> <InChIKey1>
WXTBHVZVHDTQLR

> <FragmenterScore>
0.0

> <NumberPeaksUsed>
22

$$$$

  CDK     0427161240

 13 13  0  0  0  0  0  0  0  0999 V2000
    0.0000    0.0000    0.0000 C   0  0  0  0  0  0  0  0  0  0  0  0
    0.0000    0.0000    0.0000 C   0  0  0  0  0  0  0  0  0  0  0  0
    0.0000    0.0000    0.0000 C   0  0  0  0  0  0  0  0  0  0  0  0
    0.0000    0.0000    0.0000 C   0  0  0  0  0  0  0  0  0  0  0  0
    0.0000    0.0000    0.0000 C   0  0  0  0  0  0  0  0  0  0  0  0
    0.0000    0.0000    0.0000 C   0  0  0  0  0  0  0  0  0  0  0  0
    0.0000    0.0000    0.0000 C   0  0  0  0  0  0  0  0  0  0  0  0
    0.0000    0.0000    0.0000 Br  0  0  0  0  0  0  0  0  0  0  0  0
    0.0000    0.0000    0.0000 F   0  0  0  0  0  0  0  0  0  0  0  0
    0.0000    0.0000    0.0000 F   0  0  0  0  0  0  0  0  0  0  0  0
    0.0000    0.0000    0.0000 F   0  0  0  0  0  0  0  0  0  0  0  0
    0.0000    0.0000    0.0000 N   0  0  0  0  0  0  0  0  0  0  0  0
    0.0000    0.0000    0.0000 N   0  0  0  0  0  0  0  0  0  0  0  0
  3  1  1  0  0  0  0 
  4  2  2  0  0  0  0 
  5  2  1  0  0  0  0 
  5  3  2  0  0  0  0 
  6  4  1  0  0  0  0 
  7  4  1  0  0  0  0 
  8  5  1  0  0  0  0 
  9  7  1  0  0  0  0 
 10  7  1  0  0  0  0 
 11  7  1  0  0  0  0 
 12  6  2  0  0  0  0 
 13  3  1  0  0  0  0 
 13  6  1  0  0  0  0 
M  END
> <NumberPeaksExplained>
0

> <PeaksExplained>
NA

> <FragmentMolecularFormulas>
NA

> <Score>
0.0

> <XlogP3>
2.5

> <InChI>
InChI=1S/C7H6BrF3N2/c1-3-5(8)2-4(6(12)13-3)7(9,10)11/h2H,1H3,(H2,12,13)

> <FragmenterScore_Values>
NA

> <MaximumTreeDepth>
2

> <MonoisotopicMass>
253.966645

> <CompoundName>
5-bromo-6-methyl-3-(trifluoromethyl)pyridin-2-amine

> <Identifier>
90017290

> <SimScore>
0.0

> <MolecularFormula>
C7H6BrF3N2

> <SMILES>
CC1=C(C=C(C(=N1)N)C(F)(F)F)Br

> <InChIKey2>
UHFFFAOYSA

> <InChIKey1>
LLMIFADXPGPQFA

> <FragmenterScore>
0.0

> <NumberPeaksUsed>
22

$$$$

  CDK     0427161240

 13 13  0  0  0  0  0  0  0  0999 V2000
    0.0000    0.0000    0.0000 C   0  0  0  0  0  0  0  0  0  0  0  0
    0.0000    0.0000    0.0000 C   0  0  0  0  0  0  0  0  0  0  0  0
    0.0000    0.0000    0.0000 C   0  0  0  0  0  0  0  0  0  0  0  0
    0.0000    0.0000    0.0000 C   0  0  0  0  0  0  0  0  0  0  0  0
    0.0000    0.0000    0.0000 C   0  0  0  0  0  0  0  0  0  0  0  0
    0.0000    0.0000    0.0000 C   0  0  0  0  0  0  0  0  0  0  0  0
    0.0000    0.0000    0.0000 C   0  0  0  0  0  0  0  0  0  0  0  0
    0.0000    0.0000    0.0000 Br  0  0  0  0  0  0  0  0  0  0  0  0
    0.0000    0.0000    0.0000 F   0  0  0  0  0  0  0  0  0  0  0  0
    0.0000    0.0000    0.0000 F   0  0  0  0  0  0  0  0  0  0  0  0
    0.0000    0.0000    0.0000 F   0  0  0  0  0  0  0  0  0  0  0  0
    0.0000    0.0000    0.0000 N   0  0  0  0  0  0  0  0  0  0  0  0
    0.0000    0.0000    0.0000 N   0  0  0  0  0  0  0  0  0  0  0  0
  2  1  2  0  0  0  0 
  5  1  1  0  0  0  0 
  5  3  2  0  0  0  0 
  6  2  1  0  0  0  0 
  7  4  1  0  0  0  0 
  8  6  1  0  0  0  0 
  9  7  1  0  0  0  0 
 10  7  1  0  0  0  0 
 11  7  1  0  0  0  0 
 12  3  1  0  0  0  0 
 12  6  2  0  0  0  0 
 13  4  1  0  0  0  0 
 13  5  1  0  0  0  0 
M  END
> <NumberPeaksExplained>
0

> <PeaksExplained>
NA

> <FragmentMolecularFormulas>
NA

> <Score>
0.0

> <XlogP3>
3.0

> <InChI>
InChI=1S/C7H6BrF3N2/c8-6-2-1-5(3-12-6)13-4-7(9,10)11/h1-3,13H,4H2

> <FragmenterScore_Values>
NA

> <MaximumTreeDepth>
2

> <MonoisotopicMass>
253.966645

> <CompoundName>
6-bromo-N-(2,2,2-trifluoroethyl)pyridin-3-amine

> <Identifier>
87347899

> <SimScore>
0.0

> <MolecularFormula>
C7H6BrF3N2

> <SMILES>
C1=CC(=NC=C1NCC(F)(F)F)Br

> <InChIKey2>
UHFFFAOYSA

> <InChIKey1>
RBLZBUSMMUWQAS

> <FragmenterScore>
0.0

> <NumberPeaksUsed>
22

$$$$

  CDK     0427161240

 13 14  0  0  0  0  0  0  0  0999 V2000
    0.0000    0.0000    0.0000 C   0  0  0  0  0  0  0  0  0  0  0  0
    0.0000    0.0000    0.0000 C   0  0  0  0  0  0  0  0  0  0  0  0
    0.0000    0.0000    0.0000 C   0  0  0  0  0  0  0  0  0  0  0  0
    0.0000    0.0000    0.0000 C   0  0  0  0  0  0  0  0  0  0  0  0
    0.0000    0.0000    0.0000 C   0  0  0  0  0  0  0  0  0  0  0  0
    0.0000    0.0000    0.0000 C   0  0  0  0  0  0  0  0  0  0  0  0
    0.0000    0.0000    0.0000 C   0  0  0  0  0  0  0  0  0  0  0  0
    0.0000    0.0000    0.0000 C   0  0  0  0  0  0  0  0  0  0  0  0
    0.0000    0.0000    0.0000 C   0  0  0  0  0  0  0  0  0  0  0  0
    0.0000    0.0000    0.0000 C   0  0  0  0  0  0  0  0  0  0  0  0
    0.0000    0.0000    0.0000 C   0  0  0  0  0  0  0  0  0  0  0  0
    0.0000    0.0000    0.0000 S   0  0  0  0  0  0  0  0  0  0  0  0
    0.0000    0.0000    0.0000 Se  0  0  0  0  0  0  0  0  0  0  0  0
  2  1  2  0  0  0  0 
  4  2  1  0  0  0  0 
  5  3  1  0  0  0  0 
  7  6  2  0  0  0  0 
  8  3  2  0  0  0  0 
  9  4  1  0  0  0  0 
  9  6  1  0  0  0  0 
 10  5  2  0  0  0  0 
 11  9  2  0  0  0  0 
 11 10  1  0  0  0  0 
 12  7  1  0  0  0  0 
 12 11  1  0  0  0  0 
 13  8  1  0  0  0  0 
 13 10  1  0  0  0  0 
M  END
> <NumberPeaksExplained>
0

> <PeaksExplained>
NA

> <FragmentMolecularFormulas>
NA

> <Score>
0.0

> <XlogP3>
NA

> <InChI>
InChI=1S/C11H10SSe/c1-2-4-9-6-7-12-11(9)10-5-3-8-13-10/h2-3,5-8H,1,4H2

> <FragmenterScore_Values>
NA

> <MaximumTreeDepth>
2

> <MonoisotopicMass>
253.966843

> <CompoundName>
3-allyl-2-selenophen-2-yl-thiophene

> <Identifier>
87257326

> <SimScore>
0.0

> <MolecularFormula>
C11H10SSe

> <SMILES>
C=CCC1=C(SC=C1)C2=CC=C[Se]2

> <InChIKey2>
UHFFFAOYSA

> <InChIKey1>
NMAKTEZXZFMJTR

> <FragmenterScore>
0.0

> <NumberPeaksUsed>
22

$$$$

  CDK     0427161240

 13 14  0  0  0  0  0  0  0  0999 V2000
    0.0000    0.0000    0.0000 C   0  0  0  0  0  0  0  0  0  0  0  0
    0.0000    0.0000    0.0000 C   0  0  0  0  0  0  0  0  0  0  0  0
    0.0000    0.0000    0.0000 C   0  0  0  0  0  0  0  0  0  0  0  0
    0.0000    0.0000    0.0000 C   0  0  0  0  0  0  0  0  0  0  0  0
    0.0000    0.0000    0.0000 C   0  0  0  0  0  0  0  0  0  0  0  0
    0.0000    0.0000    0.0000 C   0  0  0  0  0  0  0  0  0  0  0  0
    0.0000    0.0000    0.0000 C   0  0  0  0  0  0  0  0  0  0  0  0
    0.0000    0.0000    0.0000 C   0  0  0  0  0  0  0  0  0  0  0  0
    0.0000    0.0000    0.0000 C   0  0  0  0  0  0  0  0  0  0  0  0
    0.0000    0.0000    0.0000 C   0  0  0  0  0  0  0  0  0  0  0  0
    0.0000    0.0000    0.0000 C   0  0  0  0  0  0  0  0  0  0  0  0
    0.0000    0.0000    0.0000 S   0  0  0  0  0  0  0  0  0  0  0  0
    0.0000    0.0000    0.0000 Se  0  0  0  0  0  0  0  0  0  0  0  0
  2  1  2  0  0  0  0 
  4  2  1  0  0  0  0 
  5  3  1  0  0  0  0 
  7  3  2  0  0  0  0 
  8  6  2  0  0  0  0 
  9  4  1  0  0  0  0 
  9  6  1  0  0  0  0 
 10  5  2  0  0  0  0 
 11  9  2  0  0  0  0 
 11 10  1  0  0  0  0 
 12  7  1  0  0  0  0 
 12 10  1  0  0  0  0 
 13  8  1  0  0  0  0 
 13 11  1  0  0  0  0 
M  END
> <NumberPeaksExplained>
0

> <PeaksExplained>
NA

> <FragmentMolecularFormulas>
NA

> <Score>
0.0

> <XlogP3>
NA

> <InChI>
InChI=1S/C11H10SSe/c1-2-4-9-6-8-13-11(9)10-5-3-7-12-10/h2-3,5-8H,1,4H2

> <FragmenterScore_Values>
NA

> <MaximumTreeDepth>
2

> <MonoisotopicMass>
253.966843

> <CompoundName>
2-(3-allylselenophen-2-yl)thiophene

> <Identifier>
87256181

> <SimScore>
0.0

> <MolecularFormula>
C11H10SSe

> <SMILES>
C=CCC1=C([Se]C=C1)C2=CC=CS2

> <InChIKey2>
UHFFFAOYSA

> <InChIKey1>
KTTPAEIWSBXSSG

> <FragmenterScore>
0.0

> <NumberPeaksUsed>
22

$$$$

  CDK     0427161240

 13 12  0  0  0  0  0  0  0  0999 V2000
    0.0000    0.0000    0.0000 C   0  0  0  0  0  0  0  0  0  0  0  0
    0.0000    0.0000    0.0000 C   0  0  0  0  0  0  0  0  0  0  0  0
    0.0000    0.0000    0.0000 C   0  0  0  0  0  0  0  0  0  0  0  0
    0.0000    0.0000    0.0000 C   0  0  0  0  0  0  0  0  0  0  0  0
    0.0000    0.0000    0.0000 C   0  0  0  0  0  0  0  0  0  0  0  0
    0.0000    0.0000    0.0000 C   0  0  0  0  0  0  0  0  0  0  0  0
    0.0000    0.0000    0.0000 C   0  0  0  0  0  0  0  0  0  0  0  0
    0.0000    0.0000    0.0000 Br  0  0  0  0  0  0  0  0  0  0  0  0
    0.0000    0.0000    0.0000 F   0  0  0  0  0  0  0  0  0  0  0  0
    0.0000    0.0000    0.0000 F   0  0  0  0  0  0  0  0  0  0  0  0
    0.0000    0.0000    0.0000 F   0  0  0  0  0  0  0  0  0  0  0  0
    0.0000    0.0000    0.0000 N   0  0  0  0  0  0  0  0  0  0  0  0
    0.0000    0.0000    0.0000 N   0  0  0  0  0  0  0  0  0  0  0  0
  2  1  1  0  0  0  0 
  6  1  1  0  0  0  0 
  6  3  1  0  0  0  0 
  6  4  1  0  0  0  0 
  6  5  1  0  0  0  0 
  7  2  1  0  0  0  0 
  8  3  1  0  0  0  0 
  9  7  1  0  0  0  0 
 10  7  1  0  0  0  0 
 11  7  1  0  0  0  0 
 12  4  3  0  0  0  0 
 13  5  3  0  0  0  0 
M  END
> <NumberPeaksExplained>
0

> <PeaksExplained>
NA

> <FragmentMolecularFormulas>
NA

> <Score>
0.0

> <XlogP3>
2.3

> <InChI>
InChI=1S/C7H6BrF3N2/c8-3-6(4-12,5-13)1-2-7(9,10)11/h1-3H2

> <FragmenterScore_Values>
NA

> <MaximumTreeDepth>
2

> <MonoisotopicMass>
253.966645

> <CompoundName>
2-(bromomethyl)-2-(3,3,3-trifluoropropyl)propanedinitrile

> <Identifier>
86612542

> <SimScore>
0.0

> <MolecularFormula>
C7H6BrF3N2

> <SMILES>
C(CC(F)(F)F)C(CBr)(C#N)C#N

> <InChIKey2>
UHFFFAOYSA

> <InChIKey1>
VDGHNMIDVNJSED

> <FragmenterScore>
0.0

> <NumberPeaksUsed>
22

$$$$

  CDK     0427161240

 10 10  0  0  0  0  0  0  0  0999 V2000
    0.0000    0.0000    0.0000 C   0  0  0  0  0  0  0  0  0  0  0  0
    0.0000    0.0000    0.0000 C   0  0  0  0  0  0  0  0  0  0  0  0
    0.0000    0.0000    0.0000 C   0  0  0  0  0  0  0  0  0  0  0  0
    0.0000    0.0000    0.0000 C   0  0  0  0  0  0  0  0  0  0  0  0
    0.0000    0.0000    0.0000 I   0  0  0  0  0  0  0  0  0  0  0  0
    0.0000    0.0000    0.0000 N   0  0  0  0  0  0  0  0  0  0  0  0
    0.0000    0.0000    0.0000 N   0  0  0  0  0  0  0  0  0  0  0  0
    0.0000    0.0000    0.0000 N   0  0  0  0  0  0  0  0  0  0  0  0
    0.0000    0.0000    0.0000 N   0  0  0  0  0  0  0  0  0  0  0  0
    0.0000    0.0000    0.0000 O   0  0  0  0  0  0  0  0  0  0  0  0
  3  2  1  0  0  0  0 
  5  4  1  0  0  0  0 
  6  4  2  0  0  0  0 
  7  6  1  0  0  0  0 
  8  7  2  0  0  0  0 
  9  2  1  0  0  0  0 
  9  4  1  0  0  0  0 
  9  8  1  0  0  0  0 
 10  1  1  0  0  0  0 
 10  3  1  0  0  0  0 
M  END
> <NumberPeaksExplained>
0

> <PeaksExplained>
NA

> <FragmentMolecularFormulas>
NA

> <Score>
0.0

> <XlogP3>
0.0

> <InChI>
InChI=1S/C4H7IN4O/c1-10-3-2-9-4(5)6-7-8-9/h2-3H2,1H3

> <FragmenterScore_Values>
NA

> <MaximumTreeDepth>
2

> <MonoisotopicMass>
253.966459

> <CompoundName>
5-iodo-1-(2-methoxyethyl)tetrazole

> <Identifier>
86092828

> <SimScore>
0.0

> <MolecularFormula>
C4H7IN4O

> <SMILES>
COCCN1C(=NN=N1)I

> <InChIKey2>
UHFFFAOYSA

> <InChIKey1>
WXXYXSVOQQBUGR

> <FragmenterScore>
0.0

> <NumberPeaksUsed>
22

$$$$

  CDK     0427161240

 13 15  0  0  0  0  0  0  0  0999 V2000
    0.0000    0.0000    0.0000 C   0  0  0  0  0  0  0  0  0  0  0  0
    0.0000    0.0000    0.0000 C   0  0  0  0  0  0  0  0  0  0  0  0
    0.0000    0.0000    0.0000 C   0  0  0  0  0  0  0  0  0  0  0  0
    0.0000    0.0000    0.0000 C   0  0  0  0  0  0  0  0  0  0  0  0
    0.0000    0.0000    0.0000 C   0  0  0  0  0  0  0  0  0  0  0  0
    0.0000    0.0000    0.0000 C   0  0  0  0  0  0  0  0  0  0  0  0
    0.0000    0.0000    0.0000 C   0  0  0  0  0  0  0  0  0  0  0  0
    0.0000    0.0000    0.0000 C   0  0  0  0  0  0  0  0  0  0  0  0
    0.0000    0.0000    0.0000 C   0  0  0  0  0  0  0  0  0  0  0  0
    0.0000    0.0000    0.0000 C   0  0  0  0  0  0  0  0  0  0  0  0
    0.0000    0.0000    0.0000 C   0  0  0  0  0  0  0  0  0  0  0  0
    0.0000    0.0000    0.0000 S   0  0  0  0  0  0  0  0  0  0  0  0
    0.0000    0.0000    0.0000 Se  0  0  0  0  0  0  0  0  0  0  0  0
  2  1  2  0  0  0  0 
  3  1  1  0  0  0  0 
  4  2  1  0  0  0  0 
  6  5  1  0  0  0  0 
  8  3  2  0  0  0  0 
  9  5  1  0  0  0  0 
  9  8  1  0  0  0  0 
 10  4  2  0  0  0  0 
 10  8  1  0  0  0  0 
 11  7  1  0  0  0  0 
 11  9  2  0  0  0  0 
 12  6  1  0  0  0  0 
 12  7  1  0  0  0  0 
 13 10  1  0  0  0  0 
 13 11  1  0  0  0  0 
M  END
> <NumberPeaksExplained>
0

> <PeaksExplained>
NA

> <FragmentMolecularFormulas>
NA

> <Score>
0.0

> <XlogP3>
NA

> <InChI>
InChI=1S/C11H10SSe/c1-2-4-10-8(3-1)9-5-6-12-7-11(9)13-10/h1-4H,5-7H2

> <FragmenterScore_Values>
NA

> <MaximumTreeDepth>
2

> <MonoisotopicMass>
253.966843

> <CompoundName>
3,4-dihydro-1H-[1]benzoselenolo[2,3-c]thiopyran

> <Identifier>
85877807

> <SimScore>
0.0

> <MolecularFormula>
C11H10SSe

> <SMILES>
C1CSCC2=C1C3=CC=CC=C3[Se]2

> <InChIKey2>
UHFFFAOYSA

> <InChIKey1>
RCMCOGQVAQCZMH

> <FragmenterScore>
0.0

> <NumberPeaksUsed>
22

$$$$

  CDK     0427161240

 13 13  0  0  0  0  0  0  0  0999 V2000
    0.0000    0.0000    0.0000 C   0  0  0  0  0  0  0  0  0  0  0  0
    0.0000    0.0000    0.0000 C   0  0  0  0  0  0  0  0  0  0  0  0
    0.0000    0.0000    0.0000 C   0  0  0  0  0  0  0  0  0  0  0  0
    0.0000    0.0000    0.0000 C   0  0  0  0  0  0  0  0  0  0  0  0
    0.0000    0.0000    0.0000 C   0  0  0  0  0  0  0  0  0  0  0  0
    0.0000    0.0000    0.0000 C   0  0  0  0  0  0  0  0  0  0  0  0
    0.0000    0.0000    0.0000 C   0  0  0  0  0  0  0  0  0  0  0  0
    0.0000    0.0000    0.0000 Br  0  0  0  0  0  0  0  0  0  0  0  0
    0.0000    0.0000    0.0000 F   0  0  0  0  0  0  0  0  0  0  0  0
    0.0000    0.0000    0.0000 F   0  0  0  0  0  0  0  0  0  0  0  0
    0.0000    0.0000    0.0000 F   0  0  0  0  0  0  0  0  0  0  0  0
    0.0000    0.0000    0.0000 N   0  0  0  0  0  0  0  0  0  0  0  0
    0.0000    0.0000    0.0000 N   0  0  0  0  0  0  0  0  0  0  0  0
  2  1  1  0  0  0  0 
  5  3  2  0  0  0  0 
  5  4  1  0  0  0  0 
  6  1  1  0  0  0  0 
  7  2  1  0  0  0  0 
  8  5  1  0  0  0  0 
  9  7  1  0  0  0  0 
 10  7  1  0  0  0  0 
 11  7  1  0  0  0  0 
 12  3  1  0  0  0  0 
 12  6  2  0  0  0  0 
 13  4  2  0  0  0  0 
 13  6  1  0  0  0  0 
M  END
> <NumberPeaksExplained>
0

> <PeaksExplained>
NA

> <FragmentMolecularFormulas>
NA

> <Score>
0.0

> <XlogP3>
2.7

> <InChI>
InChI=1S/C7H6BrF3N2/c8-5-3-12-6(13-4-5)1-2-7(9,10)11/h3-4H,1-2H2

> <FragmenterScore_Values>
NA

> <MaximumTreeDepth>
2

> <MonoisotopicMass>
253.966645

> <CompoundName>
5-bromo-2-(3,3,3-trifluoropropyl)pyrimidine

> <Identifier>
84708345

> <SimScore>
0.0

> <MolecularFormula>
C7H6BrF3N2

> <SMILES>
C1=C(C=NC(=N1)CCC(F)(F)F)Br

> <InChIKey2>
UHFFFAOYSA

> <InChIKey1>
SXGNRQLTVWCSGW

> <FragmenterScore>
0.0

> <NumberPeaksUsed>
22

$$$$

  CDK     0427161240

 13 13  0  0  0  0  0  0  0  0999 V2000
    0.0000    0.0000    0.0000 C   0  0  0  0  0  0  0  0  0  0  0  0
    0.0000    0.0000    0.0000 C   0  0  0  0  0  0  0  0  0  0  0  0
    0.0000    0.0000    0.0000 C   0  0  0  0  0  0  0  0  0  0  0  0
    0.0000    0.0000    0.0000 C   0  0  0  0  0  0  0  0  0  0  0  0
    0.0000    0.0000    0.0000 C   0  0  0  0  0  0  0  0  0  0  0  0
    0.0000    0.0000    0.0000 C   0  0  0  0  0  0  0  0  0  0  0  0
    0.0000    0.0000    0.0000 C   0  0  0  0  0  0  0  0  0  0  0  0
    0.0000    0.0000    0.0000 Br  0  0  0  0  0  0  0  0  0  0  0  0
    0.0000    0.0000    0.0000 F   0  0  0  0  0  0  0  0  0  0  0  0
    0.0000    0.0000    0.0000 F   0  0  0  0  0  0  0  0  0  0  0  0
    0.0000    0.0000    0.0000 F   0  0  0  0  0  0  0  0  0  0  0  0
    0.0000    0.0000    0.0000 N   0  0  0  0  0  0  0  0  0  0  0  0
    0.0000    0.0000    0.0000 N   0  0  0  0  0  0  0  0  0  0  0  0
  3  1  1  0  0  0  0 
  4  2  2  0  0  0  0 
  5  2  1  0  0  0  0 
  6  3  2  0  0  0  0 
  6  4  1  0  0  0  0 
  7  4  1  0  0  0  0 
  8  5  1  0  0  0  0 
  9  7  1  0  0  0  0 
 10  7  1  0  0  0  0 
 11  7  1  0  0  0  0 
 12  6  1  0  0  0  0 
 13  3  1  0  0  0  0 
 13  5  2  0  0  0  0 
M  END
> <NumberPeaksExplained>
0

> <PeaksExplained>
NA

> <FragmentMolecularFormulas>
NA

> <Score>
0.0

> <XlogP3>
2.5

> <InChI>
InChI=1S/C7H6BrF3N2/c1-3-6(12)4(7(9,10)11)2-5(8)13-3/h2H,12H2,1H3

> <FragmenterScore_Values>
NA

> <MaximumTreeDepth>
2

> <MonoisotopicMass>
253.966645

> <CompoundName>
6-bromo-2-methyl-4-(trifluoromethyl)pyridin-3-amine

> <Identifier>
83488500

> <SimScore>
0.0

> <MolecularFormula>
C7H6BrF3N2

> <SMILES>
CC1=C(C(=CC(=N1)Br)C(F)(F)F)N

> <InChIKey2>
UHFFFAOYSA

> <InChIKey1>
XIVQAILPYBTKSQ

> <FragmenterScore>
0.0

> <NumberPeaksUsed>
22

$$$$

  CDK     0427161240

 13 13  0  0  0  0  0  0  0  0999 V2000
    0.0000    0.0000    0.0000 C   0  0  0  0  0  0  0  0  0  0  0  0
    0.0000    0.0000    0.0000 C   0  0  0  0  0  0  0  0  0  0  0  0
    0.0000    0.0000    0.0000 C   0  0  0  0  0  0  0  0  0  0  0  0
    0.0000    0.0000    0.0000 C   0  0  0  0  0  0  0  0  0  0  0  0
    0.0000    0.0000    0.0000 C   0  0  0  0  0  0  0  0  0  0  0  0
    0.0000    0.0000    0.0000 C   0  0  0  0  0  0  0  0  0  0  0  0
    0.0000    0.0000    0.0000 C   0  0  0  0  0  0  0  0  0  0  0  0
    0.0000    0.0000    0.0000 Br  0  0  0  0  0  0  0  0  0  0  0  0
    0.0000    0.0000    0.0000 F   0  0  0  0  0  0  0  0  0  0  0  0
    0.0000    0.0000    0.0000 F   0  0  0  0  0  0  0  0  0  0  0  0
    0.0000    0.0000    0.0000 F   0  0  0  0  0  0  0  0  0  0  0  0
    0.0000    0.0000    0.0000 N   0  0  0  0  0  0  0  0  0  0  0  0
    0.0000    0.0000    0.0000 N   0  0  0  0  0  0  0  0  0  0  0  0
  3  1  1  0  0  0  0 
  4  2  1  0  0  0  0 
  5  3  2  0  0  0  0 
  6  3  1  0  0  0  0 
  7  5  1  0  0  0  0 
  8  6  1  0  0  0  0 
  9  7  1  0  0  0  0 
 10  7  1  0  0  0  0 
 11  7  1  0  0  0  0 
 12  4  2  0  0  0  0 
 12  5  1  0  0  0  0 
 13  4  1  0  0  0  0 
 13  6  2  0  0  0  0 
M  END
> <NumberPeaksExplained>
0

> <PeaksExplained>
NA

> <FragmentMolecularFormulas>
NA

> <Score>
0.0

> <XlogP3>
2.9

> <InChI>
InChI=1S/C7H6BrF3N2/c1-3-5(7(9,10)11)12-4(2)13-6(3)8/h1-2H3

> <FragmenterScore_Values>
NA

> <MaximumTreeDepth>
2

> <MonoisotopicMass>
253.966645

> <CompoundName>
4-bromo-2,5-dimethyl-6-(trifluoromethyl)pyrimidine

> <Identifier>
83399208

> <SimScore>
0.0

> <MolecularFormula>
C7H6BrF3N2

> <SMILES>
CC1=C(N=C(N=C1Br)C)C(F)(F)F

> <InChIKey2>
UHFFFAOYSA

> <InChIKey1>
ORWZOQPZLQXBIY

> <FragmenterScore>
0.0

> <NumberPeaksUsed>
22

$$$$

  CDK     0427161240

 13 13  0  0  0  0  0  0  0  0999 V2000
    0.0000    0.0000    0.0000 C   0  0  0  0  0  0  0  0  0  0  0  0
    0.0000    0.0000    0.0000 C   0  0  0  0  0  0  0  0  0  0  0  0
    0.0000    0.0000    0.0000 C   0  0  0  0  0  0  0  0  0  0  0  0
    0.0000    0.0000    0.0000 C   0  0  0  0  0  0  0  0  0  0  0  0
    0.0000    0.0000    0.0000 C   0  0  0  0  0  0  0  0  0  0  0  0
    0.0000    0.0000    0.0000 C   0  0  0  0  0  0  0  0  0  0  0  0
    0.0000    0.0000    0.0000 C   0  0  0  0  0  0  0  0  0  0  0  0
    0.0000    0.0000    0.0000 Br  0  0  0  0  0  0  0  0  0  0  0  0
    0.0000    0.0000    0.0000 F   0  0  0  0  0  0  0  0  0  0  0  0
    0.0000    0.0000    0.0000 F   0  0  0  0  0  0  0  0  0  0  0  0
    0.0000    0.0000    0.0000 F   0  0  0  0  0  0  0  0  0  0  0  0
    0.0000    0.0000    0.0000 N   0  0  0  0  0  0  0  0  0  0  0  0
    0.0000    0.0000    0.0000 N   0  0  0  0  0  0  0  0  0  0  0  0
  2  1  1  0  0  0  0 
  4  2  1  0  0  0  0 
  5  4  2  0  0  0  0 
  6  4  1  0  0  0  0 
  7  5  1  0  0  0  0 
  8  6  1  0  0  0  0 
  9  7  1  0  0  0  0 
 10  7  1  0  0  0  0 
 11  7  1  0  0  0  0 
 12  3  2  0  0  0  0 
 12  5  1  0  0  0  0 
 13  3  1  0  0  0  0 
 13  6  2  0  0  0  0 
M  END
> <NumberPeaksExplained>
0

> <PeaksExplained>
NA

> <FragmentMolecularFormulas>
NA

> <Score>
0.0

> <XlogP3>
2.9

> <InChI>
InChI=1S/C7H6BrF3N2/c1-2-4-5(7(9,10)11)12-3-13-6(4)8/h3H,2H2,1H3

> <FragmenterScore_Values>
NA

> <MaximumTreeDepth>
2

> <MonoisotopicMass>
253.966645

> <CompoundName>
4-bromo-5-ethyl-6-(trifluoromethyl)pyrimidine

> <Identifier>
83399178

> <SimScore>
0.0

> <MolecularFormula>
C7H6BrF3N2

> <SMILES>
CCC1=C(N=CN=C1Br)C(F)(F)F

> <InChIKey2>
UHFFFAOYSA

> <InChIKey1>
MYUMQEOIXWKUGB

> <FragmenterScore>
0.0

> <NumberPeaksUsed>
22

$$$$

  CDK     0427161240

 13 13  0  0  0  0  0  0  0  0999 V2000
    0.0000    0.0000    0.0000 C   0  0  0  0  0  0  0  0  0  0  0  0
    0.0000    0.0000    0.0000 C   0  0  0  0  0  0  0  0  0  0  0  0
    0.0000    0.0000    0.0000 C   0  0  0  0  0  0  0  0  0  0  0  0
    0.0000    0.0000    0.0000 C   0  0  0  0  0  0  0  0  0  0  0  0
    0.0000    0.0000    0.0000 C   0  0  0  0  0  0  0  0  0  0  0  0
    0.0000    0.0000    0.0000 C   0  0  0  0  0  0  0  0  0  0  0  0
    0.0000    0.0000    0.0000 C   0  0  0  0  0  0  0  0  0  0  0  0
    0.0000    0.0000    0.0000 Br  0  0  0  0  0  0  0  0  0  0  0  0
    0.0000    0.0000    0.0000 F   0  0  0  0  0  0  0  0  0  0  0  0
    0.0000    0.0000    0.0000 F   0  0  0  0  0  0  0  0  0  0  0  0
    0.0000    0.0000    0.0000 F   0  0  0  0  0  0  0  0  0  0  0  0
    0.0000    0.0000    0.0000 N   0  0  0  0  0  0  0  0  0  0  0  0
    0.0000    0.0000    0.0000 N   0  0  0  0  0  0  0  0  0  0  0  0
  2  1  1  0  0  0  0 
  4  3  2  0  0  0  0 
  5  2  1  0  0  0  0 
  5  4  1  0  0  0  0 
  7  6  1  0  0  0  0 
  8  4  1  0  0  0  0 
  9  7  1  0  0  0  0 
 10  7  1  0  0  0  0 
 11  7  1  0  0  0  0 
 12  3  1  0  0  0  0 
 12  6  2  0  0  0  0 
 13  5  2  0  0  0  0 
 13  6  1  0  0  0  0 
M  END
> <NumberPeaksExplained>
0

> <PeaksExplained>
NA

> <FragmentMolecularFormulas>
NA

> <Score>
0.0

> <XlogP3>
2.6

> <InChI>
InChI=1S/C7H6BrF3N2/c1-2-5-4(8)3-12-6(13-5)7(9,10)11/h3H,2H2,1H3

> <FragmenterScore_Values>
NA

> <MaximumTreeDepth>
2

> <MonoisotopicMass>
253.966645

> <CompoundName>
5-bromo-4-ethyl-2-(trifluoromethyl)pyrimidine

> <Identifier>
82374755

> <SimScore>
0.0

> <MolecularFormula>
C7H6BrF3N2

> <SMILES>
CCC1=NC(=NC=C1Br)C(F)(F)F

> <InChIKey2>
UHFFFAOYSA

> <InChIKey1>
PVYFCTHZZGCMBR

> <FragmenterScore>
0.0

> <NumberPeaksUsed>
22

$$$$

  CDK     0427161240

 13 13  0  0  0  0  0  0  0  0999 V2000
    0.0000    0.0000    0.0000 C   0  0  0  0  0  0  0  0  0  0  0  0
    0.0000    0.0000    0.0000 C   0  0  0  0  0  0  0  0  0  0  0  0
    0.0000    0.0000    0.0000 C   0  0  0  0  0  0  0  0  0  0  0  0
    0.0000    0.0000    0.0000 C   0  0  0  0  0  0  0  0  0  0  0  0
    0.0000    0.0000    0.0000 C   0  0  0  0  0  0  0  0  0  0  0  0
    0.0000    0.0000    0.0000 C   0  0  0  0  0  0  0  0  0  0  0  0
    0.0000    0.0000    0.0000 C   0  0  0  0  0  0  0  0  0  0  0  0
    0.0000    0.0000    0.0000 Br  0  0  0  0  0  0  0  0  0  0  0  0
    0.0000    0.0000    0.0000 F   0  0  0  0  0  0  0  0  0  0  0  0
    0.0000    0.0000    0.0000 F   0  0  0  0  0  0  0  0  0  0  0  0
    0.0000    0.0000    0.0000 F   0  0  0  0  0  0  0  0  0  0  0  0
    0.0000    0.0000    0.0000 N   0  0  0  0  0  0  0  0  0  0  0  0
    0.0000    0.0000    0.0000 N   0  0  0  0  0  0  0  0  0  0  0  0
  2  1  1  0  0  0  0 
  4  3  2  0  0  0  0 
  5  2  1  0  0  0  0 
  6  4  1  0  0  0  0 
  7  6  1  0  0  0  0 
  8  4  1  0  0  0  0 
  9  7  1  0  0  0  0 
 10  7  1  0  0  0  0 
 11  7  1  0  0  0  0 
 12  3  1  0  0  0  0 
 12  5  2  0  0  0  0 
 13  5  1  0  0  0  0 
 13  6  2  0  0  0  0 
M  END
> <NumberPeaksExplained>
0

> <PeaksExplained>
NA

> <FragmentMolecularFormulas>
NA

> <Score>
0.0

> <XlogP3>
2.6

> <InChI>
InChI=1S/C7H6BrF3N2/c1-2-5-12-3-4(8)6(13-5)7(9,10)11/h3H,2H2,1H3

> <FragmenterScore_Values>
NA

> <MaximumTreeDepth>
2

> <MonoisotopicMass>
253.966645

> <CompoundName>
5-bromo-2-ethyl-4-(trifluoromethyl)pyrimidine

> <Identifier>
82374750

> <SimScore>
0.0

> <MolecularFormula>
C7H6BrF3N2

> <SMILES>
CCC1=NC=C(C(=N1)C(F)(F)F)Br

> <InChIKey2>
UHFFFAOYSA

> <InChIKey1>
AONLNBQMPUAOMA

> <FragmenterScore>
0.0

> <NumberPeaksUsed>
22

$$$$

  CDK     0427161240

 13 13  0  0  0  0  0  0  0  0999 V2000
    0.0000    0.0000    0.0000 C   0  0  0  0  0  0  0  0  0  0  0  0
    0.0000    0.0000    0.0000 C   0  0  0  0  0  0  0  0  0  0  0  0
    0.0000    0.0000    0.0000 C   0  0  0  0  0  0  0  0  0  0  0  0
    0.0000    0.0000    0.0000 C   0  0  0  0  0  0  0  0  0  0  0  0
    0.0000    0.0000    0.0000 C   0  0  0  0  0  0  0  0  0  0  0  0
    0.0000    0.0000    0.0000 C   0  0  0  0  0  0  0  0  0  0  0  0
    0.0000    0.0000    0.0000 C   0  0  0  0  0  0  0  0  0  0  0  0
    0.0000    0.0000    0.0000 Br  0  0  0  0  0  0  0  0  0  0  0  0
    0.0000    0.0000    0.0000 F   0  0  0  0  0  0  0  0  0  0  0  0
    0.0000    0.0000    0.0000 F   0  0  0  0  0  0  0  0  0  0  0  0
    0.0000    0.0000    0.0000 F   0  0  0  0  0  0  0  0  0  0  0  0
    0.0000    0.0000    0.0000 N   0  0  0  0  0  0  0  0  0  0  0  0
    0.0000    0.0000    0.0000 N   0  0  0  0  0  0  0  0  0  0  0  0
  4  1  2  0  0  0  0 
  4  2  1  0  0  0  0 
  5  3  2  0  0  0  0 
  5  4  1  0  0  0  0 
  6  1  1  0  0  0  0 
  7  6  1  0  0  0  0 
  8  5  1  0  0  0  0 
  9  7  1  0  0  0  0 
 10  7  1  0  0  0  0 
 11  7  1  0  0  0  0 
 12  2  1  0  0  0  0 
 13  3  1  0  0  0  0 
 13  6  2  0  0  0  0 
M  END
> <NumberPeaksExplained>
0

> <PeaksExplained>
NA

> <FragmentMolecularFormulas>
NA

> <Score>
0.0

> <XlogP3>
1.3

> <InChI>
InChI=1S/C7H6BrF3N2/c8-5-3-13-6(7(9,10)11)1-4(5)2-12/h1,3H,2,12H2

> <FragmenterScore_Values>
NA

> <MaximumTreeDepth>
2

> <MonoisotopicMass>
253.966645

> <CompoundName>
[5-bromo-2-(trifluoromethyl)-4-pyridyl]methanamine

> <Identifier>
74892161

> <SimScore>
0.0

> <MolecularFormula>
C7H6BrF3N2

> <SMILES>
C1=C(C(=CN=C1C(F)(F)F)Br)CN

> <InChIKey2>
UHFFFAOYSA

> <InChIKey1>
ASDPAKXSNGVLPM

> <FragmenterScore>
0.0

> <NumberPeaksUsed>
22

$$$$

  CDK     0427161240

 13 13  0  0  0  0  0  0  0  0999 V2000
    0.0000    0.0000    0.0000 C   0  0  0  0  0  0  0  0  0  0  0  0
    0.0000    0.0000    0.0000 C   0  0  0  0  0  0  0  0  0  0  0  0
    0.0000    0.0000    0.0000 C   0  0  0  0  0  0  0  0  0  0  0  0
    0.0000    0.0000    0.0000 C   0  0  0  0  0  0  0  0  0  0  0  0
    0.0000    0.0000    0.0000 C   0  0  0  0  0  0  0  0  0  0  0  0
    0.0000    0.0000    0.0000 C   0  0  0  0  0  0  0  0  0  0  0  0
    0.0000    0.0000    0.0000 C   0  0  0  0  0  0  0  0  0  0  0  0
    0.0000    0.0000    0.0000 Br  0  0  0  0  0  0  0  0  0  0  0  0
    0.0000    0.0000    0.0000 F   0  0  0  0  0  0  0  0  0  0  0  0
    0.0000    0.0000    0.0000 F   0  0  0  0  0  0  0  0  0  0  0  0
    0.0000    0.0000    0.0000 F   0  0  0  0  0  0  0  0  0  0  0  0
    0.0000    0.0000    0.0000 N   0  0  0  0  0  0  0  0  0  0  0  0
    0.0000    0.0000    0.0000 N   0  0  0  0  0  0  0  0  0  0  0  0
  4  1  2  0  0  0  0 
  4  2  1  0  0  0  0 
  4  3  1  0  0  0  0 
  5  1  1  0  0  0  0 
  6  2  2  0  0  0  0 
  7  5  1  0  0  0  0 
  8  6  1  0  0  0  0 
  9  7  1  0  0  0  0 
 10  7  1  0  0  0  0 
 11  7  1  0  0  0  0 
 12  3  1  0  0  0  0 
 13  5  2  0  0  0  0 
 13  6  1  0  0  0  0 
M  END
> <NumberPeaksExplained>
0

> <PeaksExplained>
NA

> <FragmentMolecularFormulas>
NA

> <Score>
0.0

> <XlogP3>
1.7

> <InChI>
InChI=1S/C7H6BrF3N2/c8-6-2-4(3-12)1-5(13-6)7(9,10)11/h1-2H,3,12H2

> <FragmenterScore_Values>
NA

> <MaximumTreeDepth>
2

> <MonoisotopicMass>
253.966645

> <CompoundName>
[2-bromo-6-(trifluoromethyl)-4-pyridyl]methanamine

> <Identifier>
72216134

> <SimScore>
0.0

> <MolecularFormula>
C7H6BrF3N2

> <SMILES>
C1=C(C=C(N=C1C(F)(F)F)Br)CN

> <InChIKey2>
UHFFFAOYSA

> <InChIKey1>
VMOSUEIHRKMDHN

> <FragmenterScore>
0.0

> <NumberPeaksUsed>
22

$$$$

  CDK     0427161240

 13 13  0  0  0  0  0  0  0  0999 V2000
    0.0000    0.0000    0.0000 C   0  0  0  0  0  0  0  0  0  0  0  0
    0.0000    0.0000    0.0000 C   0  0  0  0  0  0  0  0  0  0  0  0
    0.0000    0.0000    0.0000 C   0  0  0  0  0  0  0  0  0  0  0  0
    0.0000    0.0000    0.0000 C   0  0  0  0  0  0  0  0  0  0  0  0
    0.0000    0.0000    0.0000 C   0  0  0  0  0  0  0  0  0  0  0  0
    0.0000    0.0000    0.0000 C   0  0  0  0  0  0  0  0  0  0  0  0
    0.0000    0.0000    0.0000 C   0  0  0  0  0  0  0  0  0  0  0  0
    0.0000    0.0000    0.0000 Br  0  0  0  0  0  0  0  0  0  0  0  0
    0.0000    0.0000    0.0000 F   0  0  0  0  0  0  0  0  0  0  0  0
    0.0000    0.0000    0.0000 F   0  0  0  0  0  0  0  0  0  0  0  0
    0.0000    0.0000    0.0000 F   0  0  0  0  0  0  0  0  0  0  0  0
    0.0000    0.0000    0.0000 N   0  0  0  0  0  0  0  0  0  0  0  0
    0.0000    0.0000    0.0000 N   0  0  0  0  0  0  0  0  0  0  0  0
  4  1  2  0  0  0  0 
  4  2  1  0  0  0  0 
  5  1  1  0  0  0  0 
  5  3  1  0  0  0  0 
  6  2  2  0  0  0  0 
  7  4  1  0  0  0  0 
  8  6  1  0  0  0  0 
  9  7  1  0  0  0  0 
 10  7  1  0  0  0  0 
 11  7  1  0  0  0  0 
 12  3  1  0  0  0  0 
 13  5  2  0  0  0  0 
 13  6  1  0  0  0  0 
M  END
> <NumberPeaksExplained>
0

> <PeaksExplained>
NA

> <FragmentMolecularFormulas>
NA

> <Score>
0.0

> <XlogP3>
1.7

> <InChI>
InChI=1S/C7H6BrF3N2/c8-6-2-4(7(9,10)11)1-5(3-12)13-6/h1-2H,3,12H2

> <FragmenterScore_Values>
NA

> <MaximumTreeDepth>
2

> <MonoisotopicMass>
253.966645

> <CompoundName>
[6-bromo-4-(trifluoromethyl)-2-pyridyl]methanamine

> <Identifier>
72215965

> <SimScore>
0.0

> <MolecularFormula>
C7H6BrF3N2

> <SMILES>
C1=C(C=C(N=C1CN)Br)C(F)(F)F

> <InChIKey2>
UHFFFAOYSA

> <InChIKey1>
IPOIOSIZTQUNOF

> <FragmenterScore>
0.0

> <NumberPeaksUsed>
22

$$$$

  CDK     0427161240

 13 13  0  0  0  0  0  0  0  0999 V2000
    0.0000    0.0000    0.0000 C   0  0  0  0  0  0  0  0  0  0  0  0
    0.0000    0.0000    0.0000 C   0  0  0  0  0  0  0  0  0  0  0  0
    0.0000    0.0000    0.0000 C   0  0  0  0  0  0  0  0  0  0  0  0
    0.0000    0.0000    0.0000 C   0  0  0  0  0  0  0  0  0  0  0  0
    0.0000    0.0000    0.0000 C   0  0  0  0  0  0  0  0  0  0  0  0
    0.0000    0.0000    0.0000 C   0  0  0  0  0  0  0  0  0  0  0  0
    0.0000    0.0000    0.0000 C   0  0  0  0  0  0  0  0  0  0  0  0
    0.0000    0.0000    0.0000 Br  0  0  0  0  0  0  0  0  0  0  0  0
    0.0000    0.0000    0.0000 F   0  0  0  0  0  0  0  0  0  0  0  0
    0.0000    0.0000    0.0000 F   0  0  0  0  0  0  0  0  0  0  0  0
    0.0000    0.0000    0.0000 F   0  0  0  0  0  0  0  0  0  0  0  0
    0.0000    0.0000    0.0000 N   0  0  0  0  0  0  0  0  0  0  0  0
    0.0000    0.0000    0.0000 N   0  0  0  0  0  0  0  0  0  0  0  0
  4  1  2  0  0  0  0 
  4  2  1  0  0  0  0 
  5  1  1  0  0  0  0 
  5  3  2  0  0  0  0 
  6  4  1  0  0  0  0 
  7  6  1  0  0  0  0 
  8  5  1  0  0  0  0 
  9  7  1  0  0  0  0 
 10  7  1  0  0  0  0 
 11  7  1  0  0  0  0 
 12  2  1  0  0  0  0 
 13  3  1  0  0  0  0 
 13  6  2  0  0  0  0 
M  END
> <NumberPeaksExplained>
0

> <PeaksExplained>
NA

> <FragmentMolecularFormulas>
NA

> <Score>
0.0

> <XlogP3>
1.3

> <InChI>
InChI=1S/C7H6BrF3N2/c8-5-1-4(2-12)6(13-3-5)7(9,10)11/h1,3H,2,12H2

> <FragmenterScore_Values>
NA

> <MaximumTreeDepth>
2

> <MonoisotopicMass>
253.966645

> <CompoundName>
[5-bromo-2-(trifluoromethyl)-3-pyridyl]methanamine

> <Identifier>
72213026

> <SimScore>
0.0

> <MolecularFormula>
C7H6BrF3N2

> <SMILES>
C1=C(C(=NC=C1Br)C(F)(F)F)CN

> <InChIKey2>
UHFFFAOYSA

> <InChIKey1>
WGUBRRGQMOXINW

> <FragmenterScore>
0.0

> <NumberPeaksUsed>
22

$$$$

  CDK     0427161240

 13 13  0  0  0  0  0  0  0  0999 V2000
    0.0000    0.0000    0.0000 C   0  0  0  0  0  0  0  0  0  0  0  0
    0.0000    0.0000    0.0000 C   0  0  0  0  0  0  0  0  0  0  0  0
    0.0000    0.0000    0.0000 C   0  0  0  0  0  0  0  0  0  0  0  0
    0.0000    0.0000    0.0000 C   0  0  0  0  0  0  0  0  0  0  0  0
    0.0000    0.0000    0.0000 C   0  0  0  0  0  0  0  0  0  0  0  0
    0.0000    0.0000    0.0000 C   0  0  0  0  0  0  0  0  0  0  0  0
    0.0000    0.0000    0.0000 C   0  0  0  0  0  0  0  0  0  0  0  0
    0.0000    0.0000    0.0000 Br  0  0  0  0  0  0  0  0  0  0  0  0
    0.0000    0.0000    0.0000 F   0  0  0  0  0  0  0  0  0  0  0  0
    0.0000    0.0000    0.0000 F   0  0  0  0  0  0  0  0  0  0  0  0
    0.0000    0.0000    0.0000 F   0  0  0  0  0  0  0  0  0  0  0  0
    0.0000    0.0000    0.0000 N   0  0  0  0  0  0  0  0  0  0  0  0
    0.0000    0.0000    0.0000 N   0  0  0  0  0  0  0  0  0  0  0  0
  2  1  1  0  0  0  0 
  5  1  1  0  0  0  0 
  5  3  2  0  0  0  0 
  6  4  1  0  0  0  0 
  7  6  1  0  0  0  0 
  8  2  1  0  0  0  0 
  9  7  1  0  0  0  0 
 10  7  1  0  0  0  0 
 11  7  1  0  0  0  0 
 12  4  2  0  0  0  0 
 12  5  1  0  0  0  0 
 13  3  1  0  0  0  0 
 13  6  2  0  0  0  0 
M  END
> <NumberPeaksExplained>
0

> <PeaksExplained>
NA

> <FragmentMolecularFormulas>
NA

> <Score>
0.0

> <XlogP3>
1.8

> <InChI>
InChI=1S/C7H6BrF3N2/c8-2-1-5-3-13-6(4-12-5)7(9,10)11/h3-4H,1-2H2

> <FragmenterScore_Values>
NA

> <MaximumTreeDepth>
2

> <MonoisotopicMass>
253.966645

> <CompoundName>
2-(2-bromoethyl)-5-(trifluoromethyl)pyrazine

> <Identifier>
72212630

> <SimScore>
0.0

> <MolecularFormula>
C7H6BrF3N2

> <SMILES>
C1=C(N=CC(=N1)C(F)(F)F)CCBr

> <InChIKey2>
UHFFFAOYSA

> <InChIKey1>
GWDVDKPDZJCUNU

> <FragmenterScore>
0.0

> <NumberPeaksUsed>
22

$$$$

  CDK     0427161240

 13 13  0  0  0  0  0  0  0  0999 V2000
    0.0000    0.0000    0.0000 C   0  0  0  0  0  0  0  0  0  0  0  0
    0.0000    0.0000    0.0000 C   0  0  0  0  0  0  0  0  0  0  0  0
    0.0000    0.0000    0.0000 C   0  0  0  0  0  0  0  0  0  0  0  0
    0.0000    0.0000    0.0000 C   0  0  0  0  0  0  0  0  0  0  0  0
    0.0000    0.0000    0.0000 C   0  0  0  0  0  0  0  0  0  0  0  0
    0.0000    0.0000    0.0000 C   0  0  0  0  0  0  0  0  0  0  0  0
    0.0000    0.0000    0.0000 C   0  0  0  0  0  0  0  0  0  0  0  0
    0.0000    0.0000    0.0000 Br  0  0  0  0  0  0  0  0  0  0  0  0
    0.0000    0.0000    0.0000 F   0  0  0  0  0  0  0  0  0  0  0  0
    0.0000    0.0000    0.0000 F   0  0  0  0  0  0  0  0  0  0  0  0
    0.0000    0.0000    0.0000 F   0  0  0  0  0  0  0  0  0  0  0  0
    0.0000    0.0000    0.0000 N   0  0  0  0  0  0  0  0  0  0  0  0
    0.0000    0.0000    0.0000 N   0  0  0  0  0  0  0  0  0  0  0  0
  4  1  2  0  0  0  0 
  4  2  1  0  0  0  0 
  5  1  1  0  0  0  0 
  5  3  1  0  0  0  0 
  6  2  2  0  0  0  0 
  7  6  1  0  0  0  0 
  8  4  1  0  0  0  0 
  9  7  1  0  0  0  0 
 10  7  1  0  0  0  0 
 11  7  1  0  0  0  0 
 12  3  1  0  0  0  0 
 13  5  2  0  0  0  0 
 13  6  1  0  0  0  0 
M  END
> <NumberPeaksExplained>
0

> <PeaksExplained>
NA

> <FragmentMolecularFormulas>
NA

> <Score>
0.0

> <XlogP3>
1.4

> <InChI>
InChI=1S/C7H6BrF3N2/c8-4-1-5(3-12)13-6(2-4)7(9,10)11/h1-2H,3,12H2

> <FragmenterScore_Values>
NA

> <MaximumTreeDepth>
2

> <MonoisotopicMass>
253.966645

> <CompoundName>
[4-bromo-6-(trifluoromethyl)-2-pyridyl]methanamine

> <Identifier>
72212528

> <SimScore>
0.0

> <MolecularFormula>
C7H6BrF3N2

> <SMILES>
C1=C(C=C(N=C1CN)C(F)(F)F)Br

> <InChIKey2>
UHFFFAOYSA

> <InChIKey1>
UJRYGGIQPVGANQ

> <FragmenterScore>
0.0

> <NumberPeaksUsed>
22

$$$$

  CDK     0427161240

 13 13  0  0  0  0  0  0  0  0999 V2000
    0.0000    0.0000    0.0000 C   0  0  0  0  0  0  0  0  0  0  0  0
    0.0000    0.0000    0.0000 C   0  0  0  0  0  0  0  0  0  0  0  0
    0.0000    0.0000    0.0000 C   0  0  0  0  0  0  0  0  0  0  0  0
    0.0000    0.0000    0.0000 C   0  0  0  0  0  0  0  0  0  0  0  0
    0.0000    0.0000    0.0000 C   0  0  0  0  0  0  0  0  0  0  0  0
    0.0000    0.0000    0.0000 C   0  0  0  0  0  0  0  0  0  0  0  0
    0.0000    0.0000    0.0000 C   0  0  0  0  0  0  0  0  0  0  0  0
    0.0000    0.0000    0.0000 Br  0  0  0  0  0  0  0  0  0  0  0  0
    0.0000    0.0000    0.0000 F   0  0  0  0  0  0  0  0  0  0  0  0
    0.0000    0.0000    0.0000 F   0  0  0  0  0  0  0  0  0  0  0  0
    0.0000    0.0000    0.0000 F   0  0  0  0  0  0  0  0  0  0  0  0
    0.0000    0.0000    0.0000 N   0  0  0  0  0  0  0  0  0  0  0  0
    0.0000    0.0000    0.0000 N   0  0  0  0  0  0  0  0  0  0  0  0
  2  1  2  0  0  0  0 
  3  1  1  0  0  0  0 
  4  2  1  0  0  0  0 
  5  4  1  0  0  0  0 
  6  4  2  0  0  0  0 
  7  5  1  0  0  0  0 
  8  6  1  0  0  0  0 
  9  7  1  0  0  0  0 
 10  7  1  0  0  0  0 
 11  7  1  0  0  0  0 
 12  5  1  0  0  0  0 
 13  3  2  0  0  0  0 
 13  6  1  0  0  0  0 
M  END
> <NumberPeaksExplained>
0

> <PeaksExplained>
NA

> <FragmentMolecularFormulas>
NA

> <Score>
0.0

> <XlogP3>
1.9

> <InChI>
InChI=1S/C7H6BrF3N2/c8-6-4(2-1-3-13-6)5(12)7(9,10)11/h1-3,5H,12H2

> <FragmenterScore_Values>
NA

> <MaximumTreeDepth>
2

> <MonoisotopicMass>
253.966645

> <CompoundName>
1-(2-bromo-3-pyridyl)-2,2,2-trifluoro-ethanamine

> <Identifier>
72210070

> <SimScore>
0.0

> <MolecularFormula>
C7H6BrF3N2

> <SMILES>
C1=CC(=C(N=C1)Br)C(C(F)(F)F)N

> <InChIKey2>
UHFFFAOYSA

> <InChIKey1>
GMMQHKBDGCGMCM

> <FragmenterScore>
0.0

> <NumberPeaksUsed>
22

$$$$

  CDK     0427161240

 13 13  0  0  0  0  0  0  0  0999 V2000
    0.0000    0.0000    0.0000 C   0  0  0  0  0  0  0  0  0  0  0  0
    0.0000    0.0000    0.0000 C   0  0  0  0  0  0  0  0  0  0  0  0
    0.0000    0.0000    0.0000 C   0  0  0  0  0  0  0  0  0  0  0  0
    0.0000    0.0000    0.0000 C   0  0  0  0  0  0  0  0  0  0  0  0
    0.0000    0.0000    0.0000 C   0  0  0  0  0  0  0  0  0  0  0  0
    0.0000    0.0000    0.0000 C   0  0  0  0  0  0  0  0  0  0  0  0
    0.0000    0.0000    0.0000 C   0  0  0  0  0  0  0  0  0  0  0  0
    0.0000    0.0000    0.0000 Br  0  0  0  0  0  0  0  0  0  0  0  0
    0.0000    0.0000    0.0000 F   0  0  0  0  0  0  0  0  0  0  0  0
    0.0000    0.0000    0.0000 F   0  0  0  0  0  0  0  0  0  0  0  0
    0.0000    0.0000    0.0000 F   0  0  0  0  0  0  0  0  0  0  0  0
    0.0000    0.0000    0.0000 N   0  0  0  0  0  0  0  0  0  0  0  0
    0.0000    0.0000    0.0000 N   0  0  0  0  0  0  0  0  0  0  0  0
  2  1  2  0  0  0  0 
  3  1  1  0  0  0  0 
  4  2  1  0  0  0  0 
  5  3  2  0  0  0  0 
  6  4  1  0  0  0  0 
  7  6  1  0  0  0  0 
  8  5  1  0  0  0  0 
  9  7  1  0  0  0  0 
 10  7  1  0  0  0  0 
 11  7  1  0  0  0  0 
 12  6  1  0  0  0  0 
 13  4  2  0  0  0  0 
 13  5  1  0  0  0  0 
M  END
> <NumberPeaksExplained>
0

> <PeaksExplained>
NA

> <FragmentMolecularFormulas>
NA

> <Score>
0.0

> <XlogP3>
1.9

> <InChI>
InChI=1S/C7H6BrF3N2/c8-5-3-1-2-4(13-5)6(12)7(9,10)11/h1-3,6H,12H2

> <FragmenterScore_Values>
NA

> <MaximumTreeDepth>
2

> <MonoisotopicMass>
253.966645

> <CompoundName>
1-(6-bromo-2-pyridyl)-2,2,2-trifluoro-ethanamine

> <Identifier>
72209974

> <SimScore>
0.0

> <MolecularFormula>
C7H6BrF3N2

> <SMILES>
C1=CC(=NC(=C1)Br)C(C(F)(F)F)N

> <InChIKey2>
UHFFFAOYSA

> <InChIKey1>
YCUATFYSPCIFSY

> <FragmenterScore>
0.0

> <NumberPeaksUsed>
22

$$$$

  CDK     0427161240

 13 13  0  0  0  0  0  0  0  0999 V2000
    0.0000    0.0000    0.0000 C   0  0  0  0  0  0  0  0  0  0  0  0
    0.0000    0.0000    0.0000 C   0  0  0  0  0  0  0  0  0  0  0  0
    0.0000    0.0000    0.0000 C   0  0  0  0  0  0  0  0  0  0  0  0
    0.0000    0.0000    0.0000 C   0  0  0  0  0  0  0  0  0  0  0  0
    0.0000    0.0000    0.0000 C   0  0  0  0  0  0  0  0  0  0  0  0
    0.0000    0.0000    0.0000 C   0  0  0  0  0  0  0  0  0  0  0  0
    0.0000    0.0000    0.0000 C   0  0  0  0  0  0  0  0  0  0  0  0
    0.0000    0.0000    0.0000 Br  0  0  0  0  0  0  0  0  0  0  0  0
    0.0000    0.0000    0.0000 F   0  0  0  0  0  0  0  0  0  0  0  0
    0.0000    0.0000    0.0000 F   0  0  0  0  0  0  0  0  0  0  0  0
    0.0000    0.0000    0.0000 F   0  0  0  0  0  0  0  0  0  0  0  0
    0.0000    0.0000    0.0000 N   0  0  0  0  0  0  0  0  0  0  0  0
    0.0000    0.0000    0.0000 N   0  0  0  0  0  0  0  0  0  0  0  0
  4  2  2  0  0  0  0 
  5  3  2  0  0  0  0 
  5  4  1  0  0  0  0 
  6  2  1  0  0  0  0 
  7  4  1  0  0  0  0 
  8  5  1  0  0  0  0 
  9  7  1  0  0  0  0 
 10  7  1  0  0  0  0 
 11  7  1  0  0  0  0 
 12  1  1  0  0  0  0 
 12  6  2  0  0  0  0 
 13  3  1  0  0  0  0 
 13  6  1  0  0  0  0 
M  END
> <NumberPeaksExplained>
0

> <PeaksExplained>
NA

> <FragmentMolecularFormulas>
NA

> <Score>
0.0

> <XlogP3>
2.7

> <InChI>
InChI=1S/C7H6BrF3N2/c1-12-6-2-4(7(9,10)11)5(8)3-13-6/h2-3H,1H3,(H,12,13)

> <FragmenterScore_Values>
NA

> <MaximumTreeDepth>
2

> <MonoisotopicMass>
253.966645

> <CompoundName>
5-bromo-N-methyl-4-(trifluoromethyl)pyridin-2-amine

> <Identifier>
70822410

> <SimScore>
0.0

> <MolecularFormula>
C7H6BrF3N2

> <SMILES>
CNC1=NC=C(C(=C1)C(F)(F)F)Br

> <InChIKey2>
UHFFFAOYSA

> <InChIKey1>
ZOAQSCUUYXEGMR

> <FragmenterScore>
0.0

> <NumberPeaksUsed>
22

$$$$

  CDK     0427161240

 13 13  0  0  0  0  0  0  0  0999 V2000
    0.0000    0.0000    0.0000 C   0  0  0  0  0  0  0  0  0  0  0  0
    0.0000    0.0000    0.0000 C   0  0  0  0  0  0  0  0  0  0  0  0
    0.0000    0.0000    0.0000 C   0  0  0  0  0  0  0  0  0  0  0  0
    0.0000    0.0000    0.0000 C   0  0  0  0  0  0  0  0  0  0  0  0
    0.0000    0.0000    0.0000 C   0  0  0  0  0  0  0  0  0  0  0  0
    0.0000    0.0000    0.0000 C   0  0  0  0  0  0  0  0  0  0  0  0
    0.0000    0.0000    0.0000 C   0  0  0  0  0  0  0  0  0  0  0  0
    0.0000    0.0000    0.0000 Br  0  0  0  0  0  0  0  0  0  0  0  0
    0.0000    0.0000    0.0000 F   0  0  0  0  0  0  0  0  0  0  0  0
    0.0000    0.0000    0.0000 F   0  0  0  0  0  0  0  0  0  0  0  0
    0.0000    0.0000    0.0000 F   0  0  0  0  0  0  0  0  0  0  0  0
    0.0000    0.0000    0.0000 N   0  0  0  0  0  0  0  0  0  0  0  0
    0.0000    0.0000    0.0000 N   0  0  0  0  0  0  0  0  0  0  0  0
  2  1  2  0  0  0  0 
  3  1  1  0  0  0  0 
  4  2  1  0  0  0  0 
  5  3  2  0  0  0  0 
  6  4  2  0  0  0  0 
  6  5  1  0  0  0  0 
  7  5  1  0  0  0  0 
  8  6  1  0  0  0  0 
  9  7  1  0  0  0  0 
 10  7  1  0  0  0  0 
 11  7  1  0  0  0  0 
 12  3  1  0  0  0  0 
 13  4  1  0  0  0  0 
M  END
> <NumberPeaksExplained>
0

> <PeaksExplained>
NA

> <FragmentMolecularFormulas>
NA

> <Score>
0.0

> <XlogP3>
2.1

> <InChI>
InChI=1S/C7H6BrF3N2/c8-6-4(13)2-1-3(12)5(6)7(9,10)11/h1-2H,12-13H2

> <FragmenterScore_Values>
NA

> <MaximumTreeDepth>
2

> <MonoisotopicMass>
253.966645

> <CompoundName>
2-bromo-3-(trifluoromethyl)benzene-1,4-diamine

> <Identifier>
70433756

> <SimScore>
0.0

> <MolecularFormula>
C7H6BrF3N2

> <SMILES>
C1=CC(=C(C(=C1N)C(F)(F)F)Br)N

> <InChIKey2>
UHFFFAOYSA

> <InChIKey1>
QNTMXJGFQSNHCD

> <FragmenterScore>
0.0

> <NumberPeaksUsed>
22

$$$$

  CDK     0427161240

 13 13  0  0  0  0  0  0  0  0999 V2000
    0.0000    0.0000    0.0000 C   0  0  0  0  0  0  0  0  0  0  0  0
    0.0000    0.0000    0.0000 C   0  0  0  0  0  0  0  0  0  0  0  0
    0.0000    0.0000    0.0000 C   0  0  0  0  0  0  0  0  0  0  0  0
    0.0000    0.0000    0.0000 C   0  0  0  0  0  0  0  0  0  0  0  0
    0.0000    0.0000    0.0000 C   0  0  0  0  0  0  0  0  0  0  0  0
    0.0000    0.0000    0.0000 C   0  0  0  0  0  0  0  0  0  0  0  0
    0.0000    0.0000    0.0000 C   0  0  0  0  0  0  0  0  0  0  0  0
    0.0000    0.0000    0.0000 Br  0  0  0  0  0  0  0  0  0  0  0  0
    0.0000    0.0000    0.0000 F   0  0  0  0  0  0  0  0  0  0  0  0
    0.0000    0.0000    0.0000 F   0  0  0  0  0  0  0  0  0  0  0  0
    0.0000    0.0000    0.0000 F   0  0  0  0  0  0  0  0  0  0  0  0
    0.0000    0.0000    0.0000 N   0  0  0  0  0  0  0  0  0  0  0  0
    0.0000    0.0000    0.0000 N   0  0  0  0  0  0  0  0  0  0  0  0
  2  1  2  0  0  0  0 
  4  1  1  0  0  0  0 
  4  3  2  0  0  0  0 
  5  2  1  0  0  0  0 
  6  3  1  0  0  0  0 
  6  5  2  0  0  0  0 
  7  5  1  0  0  0  0 
  8  4  1  0  0  0  0 
  9  7  1  0  0  0  0 
 10  7  1  0  0  0  0 
 11  7  1  0  0  0  0 
 13  6  1  0  0  0  0 
 13 12  1  0  0  0  0 
M  END
> <NumberPeaksExplained>
0

> <PeaksExplained>
NA

> <FragmentMolecularFormulas>
NA

> <Score>
0.0

> <XlogP3>
2.7

> <InChI>
InChI=1S/C7H6BrF3N2/c8-4-1-2-5(7(9,10)11)6(3-4)13-12/h1-3,13H,12H2

> <FragmenterScore_Values>
NA

> <MaximumTreeDepth>
2

> <MonoisotopicMass>
253.966645

> <CompoundName>
[5-bromo-2-(trifluoromethyl)phenyl]hydrazine

> <Identifier>
69160772

> <SimScore>
0.0

> <MolecularFormula>
C7H6BrF3N2

> <SMILES>
C1=CC(=C(C=C1Br)NN)C(F)(F)F

> <InChIKey2>
UHFFFAOYSA

> <InChIKey1>
CYMGGFIITBIZRE

> <FragmenterScore>
0.0

> <NumberPeaksUsed>
22

$$$$

  CDK     0427161240

 13 13  0  0  0  0  0  0  0  0999 V2000
    0.0000    0.0000    0.0000 C   0  0  0  0  0  0  0  0  0  0  0  0
    0.0000    0.0000    0.0000 C   0  0  0  0  0  0  0  0  0  0  0  0
    0.0000    0.0000    0.0000 C   0  0  0  0  0  0  0  0  0  0  0  0
    0.0000    0.0000    0.0000 C   0  0  0  0  0  0  0  0  0  0  0  0
    0.0000    0.0000    0.0000 C   0  0  0  0  0  0  0  0  0  0  0  0
    0.0000    0.0000    0.0000 C   0  0  0  0  0  0  0  0  0  0  0  0
    0.0000    0.0000    0.0000 C   0  0  0  0  0  0  0  0  0  0  0  0
    0.0000    0.0000    0.0000 Br  0  0  0  0  0  0  0  0  0  0  0  0
    0.0000    0.0000    0.0000 F   0  0  0  0  0  0  0  0  0  0  0  0
    0.0000    0.0000    0.0000 F   0  0  0  0  0  0  0  0  0  0  0  0
    0.0000    0.0000    0.0000 F   0  0  0  0  0  0  0  0  0  0  0  0
    0.0000    0.0000    0.0000 N   0  0  0  0  0  0  0  0  0  0  0  0
    0.0000    0.0000    0.0000 N   0  0  0  0  0  0  0  0  0  0  0  0
  2  1  2  0  0  0  0 
  4  1  1  0  0  0  0 
  4  3  2  0  0  0  0 
  5  2  1  0  0  0  0 
  6  3  1  0  0  0  0 
  6  5  2  0  0  0  0 
  7  5  1  0  0  0  0 
  8  6  1  0  0  0  0 
  9  7  1  0  0  0  0 
 10  7  1  0  0  0  0 
 11  7  1  0  0  0  0 
 13  4  1  0  0  0  0 
 13 12  1  0  0  0  0 
M  END
> <NumberPeaksExplained>
0

> <PeaksExplained>
NA

> <FragmentMolecularFormulas>
NA

> <Score>
0.0

> <XlogP3>
2.7

> <InChI>
InChI=1S/C7H6BrF3N2/c8-6-3-4(13-12)1-2-5(6)7(9,10)11/h1-3,13H,12H2

> <FragmenterScore_Values>
NA

> <MaximumTreeDepth>
2

> <MonoisotopicMass>
253.966645

> <CompoundName>
[3-bromo-4-(trifluoromethyl)phenyl]hydrazine

> <Identifier>
68714321

> <SimScore>
0.0

> <MolecularFormula>
C7H6BrF3N2

> <SMILES>
C1=CC(=C(C=C1NN)Br)C(F)(F)F

> <InChIKey2>
UHFFFAOYSA

> <InChIKey1>
CWDINZQGPXTDDW

> <FragmenterScore>
0.0

> <NumberPeaksUsed>
22

$$$$

  CDK     0427161240

 13 13  0  0  0  0  0  0  0  0999 V2000
    0.0000    0.0000    0.0000 C   0  0  0  0  0  0  0  0  0  0  0  0
    0.0000    0.0000    0.0000 C   0  0  0  0  0  0  0  0  0  0  0  0
    0.0000    0.0000    0.0000 C   0  0  0  0  0  0  0  0  0  0  0  0
    0.0000    0.0000    0.0000 C   0  0  0  0  0  0  0  0  0  0  0  0
    0.0000    0.0000    0.0000 C   0  0  0  0  0  0  0  0  0  0  0  0
    0.0000    0.0000    0.0000 C   0  0  0  0  0  0  0  0  0  0  0  0
    0.0000    0.0000    0.0000 C   0  0  0  0  0  0  0  0  0  0  0  0
    0.0000    0.0000    0.0000 Br  0  0  0  0  0  0  0  0  0  0  0  0
    0.0000    0.0000    0.0000 F   0  0  0  0  0  0  0  0  0  0  0  0
    0.0000    0.0000    0.0000 F   0  0  0  0  0  0  0  0  0  0  0  0
    0.0000    0.0000    0.0000 F   0  0  0  0  0  0  0  0  0  0  0  0
    0.0000    0.0000    0.0000 N   0  0  0  0  0  0  0  0  0  0  0  0
    0.0000    0.0000    0.0000 N   0  0  0  0  0  0  0  0  0  0  0  0
  4  2  2  0  0  0  0 
  4  3  1  0  0  0  0 
  5  2  1  0  0  0  0 
  6  5  2  0  0  0  0 
  7  4  1  0  0  0  0 
  8  5  1  0  0  0  0 
  9  7  1  0  0  0  0 
 10  7  1  0  0  0  0 
 11  7  1  0  0  0  0 
 12  1  1  0  0  0  0 
 12  6  1  0  0  0  0 
 13  3  2  0  0  0  0 
 13  6  1  0  0  0  0 
M  END
> <NumberPeaksExplained>
0

> <PeaksExplained>
NA

> <FragmentMolecularFormulas>
NA

> <Score>
0.0

> <XlogP3>
2.7

> <InChI>
InChI=1S/C7H6BrF3N2/c1-12-6-5(8)2-4(3-13-6)7(9,10)11/h2-3H,1H3,(H,12,13)

> <FragmenterScore_Values>
NA

> <MaximumTreeDepth>
2

> <MonoisotopicMass>
253.966645

> <CompoundName>
3-bromo-N-methyl-5-(trifluoromethyl)pyridin-2-amine

> <Identifier>
67981323

> <SimScore>
0.0

> <MolecularFormula>
C7H6BrF3N2

> <SMILES>
CNC1=C(C=C(C=N1)C(F)(F)F)Br

> <InChIKey2>
UHFFFAOYSA

> <InChIKey1>
QRXFYWNKCQRQMN

> <FragmenterScore>
0.0

> <NumberPeaksUsed>
22

$$$$

  CDK     0427161240

 13 13  0  0  0  0  0  0  0  0999 V2000
    0.0000    0.0000    0.0000 C   0  0  0  0  0  0  0  0  0  0  0  0
    0.0000    0.0000    0.0000 C   0  0  0  0  0  0  0  0  0  0  0  0
    0.0000    0.0000    0.0000 C   0  0  0  0  0  0  0  0  0  0  0  0
    0.0000    0.0000    0.0000 C   0  0  0  0  0  0  0  0  0  0  0  0
    0.0000    0.0000    0.0000 C   0  0  0  0  0  0  0  0  0  0  0  0
    0.0000    0.0000    0.0000 C   0  0  0  0  0  0  0  0  0  0  0  0
    0.0000    0.0000    0.0000 C   0  0  0  0  0  0  0  0  0  0  0  0
    0.0000    0.0000    0.0000 Br  0  0  0  0  0  0  0  0  0  0  0  0
    0.0000    0.0000    0.0000 F   0  0  0  0  0  0  0  0  0  0  0  0
    0.0000    0.0000    0.0000 F   0  0  0  0  0  0  0  0  0  0  0  0
    0.0000    0.0000    0.0000 F   0  0  0  0  0  0  0  0  0  0  0  0
    0.0000    0.0000    0.0000 N   0  0  0  0  0  0  0  0  0  0  0  0
    0.0000    0.0000    0.0000 N   0  0  0  0  0  0  0  0  0  0  0  0
  3  1  2  0  0  0  0 
  3  2  1  0  0  0  0 
  4  1  1  0  0  0  0 
  5  2  2  0  0  0  0 
  6  4  2  0  0  0  0 
  6  5  1  0  0  0  0 
  7  4  1  0  0  0  0 
  8  5  1  0  0  0  0 
  9  7  1  0  0  0  0 
 10  7  1  0  0  0  0 
 11  7  1  0  0  0  0 
 12  3  1  0  0  0  0 
 13  6  1  0  0  0  0 
M  END
> <NumberPeaksExplained>
0

> <PeaksExplained>
NA

> <FragmentMolecularFormulas>
NA

> <Score>
0.0

> <XlogP3>
2.1

> <InChI>
InChI=1S/C7H6BrF3N2/c8-5-2-3(12)1-4(6(5)13)7(9,10)11/h1-2H,12-13H2

> <FragmenterScore_Values>
NA

> <MaximumTreeDepth>
2

> <MonoisotopicMass>
253.966645

> <CompoundName>
2-bromo-6-(trifluoromethyl)benzene-1,4-diamine

> <Identifier>
67407678

> <SimScore>
0.0

> <MolecularFormula>
C7H6BrF3N2

> <SMILES>
C1=C(C=C(C(=C1Br)N)C(F)(F)F)N

> <InChIKey2>
UHFFFAOYSA

> <InChIKey1>
LSGHACOYWSKARI

> <FragmenterScore>
0.0

> <NumberPeaksUsed>
22

$$$$

  CDK     0427161240

 13 13  0  0  0  0  0  0  0  0999 V2000
    0.0000    0.0000    0.0000 C   0  0  0  0  0  0  0  0  0  0  0  0
    0.0000    0.0000    0.0000 C   0  0  0  0  0  0  0  0  0  0  0  0
    0.0000    0.0000    0.0000 C   0  0  0  0  0  0  0  0  0  0  0  0
    0.0000    0.0000    0.0000 C   0  0  0  0  0  0  0  0  0  0  0  0
    0.0000    0.0000    0.0000 C   0  0  0  0  0  0  0  0  0  0  0  0
    0.0000    0.0000    0.0000 C   0  0  0  0  0  0  0  0  0  0  0  0
    0.0000    0.0000    0.0000 C   0  0  0  0  0  0  0  0  0  0  0  0
    0.0000    0.0000    0.0000 Br  0  0  0  0  0  0  0  0  0  0  0  0
    0.0000    0.0000    0.0000 F   0  0  0  0  0  0  0  0  0  0  0  0
    0.0000    0.0000    0.0000 F   0  0  0  0  0  0  0  0  0  0  0  0
    0.0000    0.0000    0.0000 F   0  0  0  0  0  0  0  0  0  0  0  0
    0.0000    0.0000    0.0000 N   0  0  0  0  0  0  0  0  0  0  0  0
    0.0000    0.0000    0.0000 N   0  0  0  0  0  0  0  0  0  0  0  0
  4  2  2  0  0  0  0 
  4  3  1  0  0  0  0 
  5  2  1  0  0  0  0 
  6  5  2  0  0  0  0 
  7  5  1  0  0  0  0 
  8  4  1  0  0  0  0 
  9  7  1  0  0  0  0 
 10  7  1  0  0  0  0 
 11  7  1  0  0  0  0 
 12  1  1  0  0  0  0 
 12  6  1  0  0  0  0 
 13  3  2  0  0  0  0 
 13  6  1  0  0  0  0 
M  END
> <NumberPeaksExplained>
0

> <PeaksExplained>
NA

> <FragmentMolecularFormulas>
NA

> <Score>
0.0

> <XlogP3>
2.7

> <InChI>
InChI=1S/C7H6BrF3N2/c1-12-6-5(7(9,10)11)2-4(8)3-13-6/h2-3H,1H3,(H,12,13)

> <FragmenterScore_Values>
NA

> <MaximumTreeDepth>
2

> <MonoisotopicMass>
253.966645

> <CompoundName>
5-bromo-N-methyl-3-(trifluoromethyl)pyridin-2-amine

> <Identifier>
67266336

> <SimScore>
0.0

> <MolecularFormula>
C7H6BrF3N2

> <SMILES>
CNC1=NC=C(C=C1C(F)(F)F)Br

> <InChIKey2>
UHFFFAOYSA

> <InChIKey1>
KPIBKAFZXKJPPX

> <FragmenterScore>
0.0

> <NumberPeaksUsed>
22

$$$$

  CDK     0427161240

 13 13  0  0  0  0  0  0  0  0999 V2000
    0.0000    0.0000    0.0000 C   0  0  0  0  0  0  0  0  0  0  0  0
    0.0000    0.0000    0.0000 C   0  0  0  0  0  0  0  0  0  0  0  0
    0.0000    0.0000    0.0000 C   0  0  0  0  0  0  0  0  0  0  0  0
    0.0000    0.0000    0.0000 C   0  0  0  0  0  0  0  0  0  0  0  0
    0.0000    0.0000    0.0000 C   0  0  0  0  0  0  0  0  0  0  0  0
    0.0000    0.0000    0.0000 C   0  0  0  0  0  0  0  0  0  0  0  0
    0.0000    0.0000    0.0000 C   0  0  0  0  0  0  0  0  0  0  0  0
    0.0000    0.0000    0.0000 Br  0  0  0  0  0  0  0  0  0  0  0  0
    0.0000    0.0000    0.0000 F   0  0  0  0  0  0  0  0  0  0  0  0
    0.0000    0.0000    0.0000 F   0  0  0  0  0  0  0  0  0  0  0  0
    0.0000    0.0000    0.0000 F   0  0  0  0  0  0  0  0  0  0  0  0
    0.0000    0.0000    0.0000 N   0  0  0  0  0  0  0  0  0  0  0  0
    0.0000    0.0000    0.0000 N   0  0  0  0  0  0  0  0  0  0  0  0
  4  1  2  0  0  0  0 
  4  3  1  0  0  0  0 
  5  1  1  0  0  0  0 
  6  2  1  0  0  0  0 
  6  5  2  0  0  0  0 
  7  5  1  0  0  0  0 
  8  4  1  0  0  0  0 
  9  7  1  0  0  0  0 
 10  7  1  0  0  0  0 
 11  7  1  0  0  0  0 
 12  2  1  0  0  0  0 
 13  3  2  0  0  0  0 
 13  6  1  0  0  0  0 
M  END
> <NumberPeaksExplained>
0

> <PeaksExplained>
NA

> <FragmentMolecularFormulas>
NA

> <Score>
0.0

> <XlogP3>
1.3

> <InChI>
InChI=1S/C7H6BrF3N2/c8-4-1-5(7(9,10)11)6(2-12)13-3-4/h1,3H,2,12H2

> <FragmenterScore_Values>
NA

> <MaximumTreeDepth>
2

> <MonoisotopicMass>
253.966645

> <CompoundName>
[5-bromo-3-(trifluoromethyl)-2-pyridyl]methanamine

> <Identifier>
67266335

> <SimScore>
0.0

> <MolecularFormula>
C7H6BrF3N2

> <SMILES>
C1=C(C(=NC=C1Br)CN)C(F)(F)F

> <InChIKey2>
UHFFFAOYSA

> <InChIKey1>
YBEPYGLYWWTDLC

> <FragmenterScore>
0.0

> <NumberPeaksUsed>
22

$$$$

  CDK     0427161240

 13 13  0  0  0  0  0  0  0  0999 V2000
    0.0000    0.0000    0.0000 C   0  0  0  0  0  0  0  0  0  0  0  0
    0.0000    0.0000    0.0000 C   0  0  0  0  0  0  0  0  0  0  0  0
    0.0000    0.0000    0.0000 C   0  0  0  0  0  0  0  0  0  0  0  0
    0.0000    0.0000    0.0000 C   0  0  0  0  0  0  0  0  0  0  0  0
    0.0000    0.0000    0.0000 C   0  0  0  0  0  0  0  0  0  0  0  0
    0.0000    0.0000    0.0000 C   0  0  0  0  0  0  0  0  0  0  0  0
    0.0000    0.0000    0.0000 C   0  0  0  0  0  0  0  0  0  0  0  0
    0.0000    0.0000    0.0000 Br  0  0  0  0  0  0  0  0  0  0  0  0
    0.0000    0.0000    0.0000 F   0  0  0  0  0  0  0  0  0  0  0  0
    0.0000    0.0000    0.0000 F   0  0  0  0  0  0  0  0  0  0  0  0
    0.0000    0.0000    0.0000 F   0  0  0  0  0  0  0  0  0  0  0  0
    0.0000    0.0000    0.0000 N   0  0  0  0  0  0  0  0  0  0  0  0
    0.0000    0.0000    0.0000 N   0  0  0  0  0  0  0  0  0  0  0  0
  2  1  1  0  0  0  0 
  5  1  1  0  0  0  0 
  5  3  2  0  0  0  0 
  5  4  1  0  0  0  0 
  7  6  1  0  0  0  0 
  8  2  1  0  0  0  0 
  9  7  1  0  0  0  0 
 10  7  1  0  0  0  0 
 11  7  1  0  0  0  0 
 12  3  1  0  0  0  0 
 12  6  2  0  0  0  0 
 13  4  2  0  0  0  0 
 13  6  1  0  0  0  0 
M  END
> <NumberPeaksExplained>
0

> <PeaksExplained>
NA

> <FragmentMolecularFormulas>
NA

> <Score>
0.0

> <XlogP3>
2.1

> <InChI>
InChI=1S/C7H6BrF3N2/c8-2-1-5-3-12-6(13-4-5)7(9,10)11/h3-4H,1-2H2

> <FragmenterScore_Values>
NA

> <MaximumTreeDepth>
2

> <MonoisotopicMass>
253.966645

> <CompoundName>
5-(2-bromoethyl)-2-(trifluoromethyl)pyrimidine

> <Identifier>
66911660

> <SimScore>
0.0

> <MolecularFormula>
C7H6BrF3N2

> <SMILES>
C1=C(C=NC(=N1)C(F)(F)F)CCBr

> <InChIKey2>
UHFFFAOYSA

> <InChIKey1>
LSJMGSHURHMMRT

> <FragmenterScore>
0.0

> <NumberPeaksUsed>
22

$$$$

  CDK     0427161240

 13 13  0  0  0  0  0  0  0  0999 V2000
    0.0000    0.0000    0.0000 C   0  0  0  0  0  0  0  0  0  0  0  0
    0.0000    0.0000    0.0000 C   0  0  0  0  0  0  0  0  0  0  0  0
    0.0000    0.0000    0.0000 C   0  0  0  0  0  0  0  0  0  0  0  0
    0.0000    0.0000    0.0000 C   0  0  0  0  0  0  0  0  0  0  0  0
    0.0000    0.0000    0.0000 C   0  0  0  0  0  0  0  0  0  0  0  0
    0.0000    0.0000    0.0000 C   0  0  0  0  0  0  0  0  0  0  0  0
    0.0000    0.0000    0.0000 C   0  0  0  0  0  0  0  0  0  0  0  0
    0.0000    0.0000    0.0000 Br  0  0  0  0  0  0  0  0  0  0  0  0
    0.0000    0.0000    0.0000 F   0  0  0  0  0  0  0  0  0  0  0  0
    0.0000    0.0000    0.0000 F   0  0  0  0  0  0  0  0  0  0  0  0
    0.0000    0.0000    0.0000 F   0  0  0  0  0  0  0  0  0  0  0  0
    0.0000    0.0000    0.0000 N   0  0  0  0  0  0  0  0  0  0  0  0
    0.0000    0.0000    0.0000 N   0  0  0  0  0  0  0  0  0  0  0  0
  4  1  2  0  0  0  0 
  4  2  1  0  0  0  0 
  5  1  1  0  0  0  0 
  5  3  2  0  0  0  0 
  6  2  2  0  0  0  0 
  6  3  1  0  0  0  0 
  7  4  1  0  0  0  0 
  8  5  1  0  0  0  0 
  9  7  1  0  0  0  0 
 10  7  1  0  0  0  0 
 11  7  1  0  0  0  0 
 13  6  1  0  0  0  0 
 13 12  1  0  0  0  0 
M  END
> <NumberPeaksExplained>
0

> <PeaksExplained>
NA

> <FragmentMolecularFormulas>
NA

> <Score>
0.0

> <XlogP3>
2.7

> <InChI>
InChI=1S/C7H6BrF3N2/c8-5-1-4(7(9,10)11)2-6(3-5)13-12/h1-3,13H,12H2

> <FragmenterScore_Values>
NA

> <MaximumTreeDepth>
2

> <MonoisotopicMass>
253.966645

> <CompoundName>
[3-bromo-5-(trifluoromethyl)phenyl]hydrazine

> <Identifier>
65490425

> <SimScore>
0.0

> <MolecularFormula>
C7H6BrF3N2

> <SMILES>
C1=C(C=C(C=C1NN)Br)C(F)(F)F

> <InChIKey2>
UHFFFAOYSA

> <InChIKey1>
DCCPJARUTOSZDH

> <FragmenterScore>
0.0

> <NumberPeaksUsed>
22

$$$$

  CDK     0427161240

 13 13  0  0  0  0  0  0  0  0999 V2000
    0.0000    0.0000    0.0000 C   0  0  0  0  0  0  0  0  0  0  0  0
    0.0000    0.0000    0.0000 C   0  0  0  0  0  0  0  0  0  0  0  0
    0.0000    0.0000    0.0000 C   0  0  0  0  0  0  0  0  0  0  0  0
    0.0000    0.0000    0.0000 C   0  0  0  0  0  0  0  0  0  0  0  0
    0.0000    0.0000    0.0000 C   0  0  0  0  0  0  0  0  0  0  0  0
    0.0000    0.0000    0.0000 C   0  0  0  0  0  0  0  0  0  0  0  0
    0.0000    0.0000    0.0000 C   0  0  0  0  0  0  0  0  0  0  0  0
    0.0000    0.0000    0.0000 Br  0  0  0  0  0  0  0  0  0  0  0  0
    0.0000    0.0000    0.0000 F   0  0  0  0  0  0  0  0  0  0  0  0
    0.0000    0.0000    0.0000 F   0  0  0  0  0  0  0  0  0  0  0  0
    0.0000    0.0000    0.0000 F   0  0  0  0  0  0  0  0  0  0  0  0
    0.0000    0.0000    0.0000 N   0  0  0  0  0  0  0  0  0  0  0  0
    0.0000    0.0000    0.0000 N   0  0  0  0  0  0  0  0  0  0  0  0
  2  1  2  0  0  0  0 
  3  1  1  0  0  0  0 
  5  2  1  0  0  0  0 
  6  3  2  0  0  0  0 
  7  4  1  0  0  0  0 
  8  5  1  0  0  0  0 
  9  7  1  0  0  0  0 
 10  7  1  0  0  0  0 
 11  7  1  0  0  0  0 
 12  4  1  0  0  0  0 
 12  6  1  0  0  0  0 
 13  5  2  0  0  0  0 
 13  6  1  0  0  0  0 
M  END
> <NumberPeaksExplained>
0

> <PeaksExplained>
NA

> <FragmentMolecularFormulas>
NA

> <Score>
0.0

> <XlogP3>
3.3

> <InChI>
InChI=1S/C7H6BrF3N2/c8-5-2-1-3-6(13-5)12-4-7(9,10)11/h1-3H,4H2,(H,12,13)

> <FragmenterScore_Values>
NA

> <MaximumTreeDepth>
2

> <MonoisotopicMass>
253.966645

> <CompoundName>
6-bromo-N-(2,2,2-trifluoroethyl)pyridin-2-amine

> <Identifier>
63963853

> <SimScore>
0.0

> <MolecularFormula>
C7H6BrF3N2

> <SMILES>
C1=CC(=NC(=C1)Br)NCC(F)(F)F

> <InChIKey2>
UHFFFAOYSA

> <InChIKey1>
AWDFWOLDIIUCSG

> <FragmenterScore>
0.0

> <NumberPeaksUsed>
22

$$$$

  CDK     0427161240

 13 13  0  0  0  0  0  0  0  0999 V2000
    0.0000    0.0000    0.0000 C   0  0  0  0  0  0  0  0  0  0  0  0
    0.0000    0.0000    0.0000 C   0  0  0  0  0  0  0  0  0  0  0  0
    0.0000    0.0000    0.0000 C   0  0  0  0  0  0  0  0  0  0  0  0
    0.0000    0.0000    0.0000 C   0  0  0  0  0  0  0  0  0  0  0  0
    0.0000    0.0000    0.0000 C   0  0  0  0  0  0  0  0  0  0  0  0
    0.0000    0.0000    0.0000 C   0  0  0  0  0  0  0  0  0  0  0  0
    0.0000    0.0000    0.0000 C   0  0  0  0  0  0  0  0  0  0  0  0
    0.0000    0.0000    0.0000 Br  0  0  0  0  0  0  0  0  0  0  0  0
    0.0000    0.0000    0.0000 F   0  0  0  0  0  0  0  0  0  0  0  0
    0.0000    0.0000    0.0000 F   0  0  0  0  0  0  0  0  0  0  0  0
    0.0000    0.0000    0.0000 F   0  0  0  0  0  0  0  0  0  0  0  0
    0.0000    0.0000    0.0000 N   0  0  0  0  0  0  0  0  0  0  0  0
    0.0000    0.0000    0.0000 N   0  0  0  0  0  0  0  0  0  0  0  0
  2  1  2  0  0  0  0 
  3  1  1  0  0  0  0 
  5  2  1  0  0  0  0 
  6  5  2  0  0  0  0 
  7  4  1  0  0  0  0 
  8  5  1  0  0  0  0 
  9  7  1  0  0  0  0 
 10  7  1  0  0  0  0 
 11  7  1  0  0  0  0 
 12  3  2  0  0  0  0 
 12  6  1  0  0  0  0 
 13  4  1  0  0  0  0 
 13  6  1  0  0  0  0 
M  END
> <NumberPeaksExplained>
0

> <PeaksExplained>
NA

> <FragmentMolecularFormulas>
NA

> <Score>
0.0

> <XlogP3>
3.0

> <InChI>
InChI=1S/C7H6BrF3N2/c8-5-2-1-3-12-6(5)13-4-7(9,10)11/h1-3H,4H2,(H,12,13)

> <FragmenterScore_Values>
NA

> <MaximumTreeDepth>
2

> <MonoisotopicMass>
253.966645

> <CompoundName>
3-bromo-N-(2,2,2-trifluoroethyl)pyridin-2-amine

> <Identifier>
61373713

> <SimScore>
0.0

> <MolecularFormula>
C7H6BrF3N2

> <SMILES>
C1=CC(=C(N=C1)NCC(F)(F)F)Br

> <InChIKey2>
UHFFFAOYSA

> <InChIKey1>
STHVEGIDWRNXRS

> <FragmenterScore>
0.0

> <NumberPeaksUsed>
22

$$$$

  CDK     0427161240

 13 13  0  0  0  0  0  0  0  0999 V2000
    0.0000    0.0000    0.0000 C   0  0  0  0  0  0  0  0  0  0  0  0
    0.0000    0.0000    0.0000 C   0  0  0  0  0  0  0  0  0  0  0  0
    0.0000    0.0000    0.0000 C   0  0  0  0  0  0  0  0  0  0  0  0
    0.0000    0.0000    0.0000 C   0  0  0  0  0  0  0  0  0  0  0  0
    0.0000    0.0000    0.0000 C   0  0  0  0  0  0  0  0  0  0  0  0
    0.0000    0.0000    0.0000 C   0  0  0  0  0  0  0  0  0  0  0  0
    0.0000    0.0000    0.0000 C   0  0  0  0  0  0  0  0  0  0  0  0
    0.0000    0.0000    0.0000 Br  0  0  0  0  0  0  0  0  0  0  0  0
    0.0000    0.0000    0.0000 F   0  0  0  0  0  0  0  0  0  0  0  0
    0.0000    0.0000    0.0000 F   0  0  0  0  0  0  0  0  0  0  0  0
    0.0000    0.0000    0.0000 F   0  0  0  0  0  0  0  0  0  0  0  0
    0.0000    0.0000    0.0000 N   0  0  0  0  0  0  0  0  0  0  0  0
    0.0000    0.0000    0.0000 N   0  0  0  0  0  0  0  0  0  0  0  0
  4  1  2  0  0  0  0 
  4  2  1  0  0  0  0 
  5  1  1  0  0  0  0 
  5  3  2  0  0  0  0 
  6  4  1  0  0  0  0 
  7  6  1  0  0  0  0 
  8  5  1  0  0  0  0 
  9  7  1  0  0  0  0 
 10  7  1  0  0  0  0 
 11  7  1  0  0  0  0 
 12  6  1  0  0  0  0 
 13  2  2  0  0  0  0 
 13  3  1  0  0  0  0 
M  END
> <NumberPeaksExplained>
0

> <PeaksExplained>
NA

> <FragmentMolecularFormulas>
NA

> <Score>
0.0

> <XlogP3>
1.5

> <InChI>
InChI=1S/C7H6BrF3N2/c8-5-1-4(2-13-3-5)6(12)7(9,10)11/h1-3,6H,12H2

> <FragmenterScore_Values>
NA

> <MaximumTreeDepth>
2

> <MonoisotopicMass>
253.966645

> <CompoundName>
1-(5-bromo-3-pyridyl)-2,2,2-trifluoro-ethanamine

> <Identifier>
59578417

> <SimScore>
0.0

> <MolecularFormula>
C7H6BrF3N2

> <SMILES>
C1=C(C=NC=C1Br)C(C(F)(F)F)N

> <InChIKey2>
UHFFFAOYSA

> <InChIKey1>
ZPHORVARHZMHMV

> <FragmenterScore>
0.0

> <NumberPeaksUsed>
22

$$$$

  CDK     0427161240

 13 13  0  0  0  0  0  0  0  0999 V2000
    0.0000    0.0000    0.0000 C   0  0  0  0  0  0  0  0  0  0  0  0
    0.0000    0.0000    0.0000 C   0  0  0  0  0  0  0  0  0  0  0  0
    0.0000    0.0000    0.0000 C   0  0  0  0  0  0  0  0  0  0  0  0
    0.0000    0.0000    0.0000 C   0  0  0  0  0  0  0  0  0  0  0  0
    0.0000    0.0000    0.0000 C   0  0  0  0  0  0  0  0  0  0  0  0
    0.0000    0.0000    0.0000 C   0  0  0  0  0  0  0  0  0  0  0  0
    0.0000    0.0000    0.0000 C   0  0  0  0  0  0  0  0  0  0  0  0
    0.0000    0.0000    0.0000 Br  0  0  0  0  0  0  0  0  0  0  0  0
    0.0000    0.0000    0.0000 F   0  0  0  0  0  0  0  0  0  0  0  0
    0.0000    0.0000    0.0000 F   0  0  0  0  0  0  0  0  0  0  0  0
    0.0000    0.0000    0.0000 F   0  0  0  0  0  0  0  0  0  0  0  0
    0.0000    0.0000    0.0000 N   0  0  0  0  0  0  0  0  0  0  0  0
    0.0000    0.0000    0.0000 N   0  0  0  0  0  0  0  0  0  0  0  0
  2  1  2  0  0  0  0 
  4  1  1  0  0  0  0 
  4  3  2  0  0  0  0 
  5  2  1  0  0  0  0 
  6  4  1  0  0  0  0 
  7  6  1  0  0  0  0 
  8  5  1  0  0  0  0 
  9  7  1  0  0  0  0 
 10  7  1  0  0  0  0 
 11  7  1  0  0  0  0 
 12  6  1  0  0  0  0 
 13  3  1  0  0  0  0 
 13  5  2  0  0  0  0 
M  END
> <NumberPeaksExplained>
0

> <PeaksExplained>
NA

> <FragmentMolecularFormulas>
NA

> <Score>
0.0

> <XlogP3>
1.9

> <InChI>
InChI=1S/C7H6BrF3N2/c8-5-2-1-4(3-13-5)6(12)7(9,10)11/h1-3,6H,12H2

> <FragmenterScore_Values>
NA

> <MaximumTreeDepth>
2

> <MonoisotopicMass>
253.966645

> <CompoundName>
1-(6-bromo-3-pyridyl)-2,2,2-trifluoro-ethanamine

> <Identifier>
59278511

> <SimScore>
0.0

> <MolecularFormula>
C7H6BrF3N2

> <SMILES>
C1=CC(=NC=C1C(C(F)(F)F)N)Br

> <InChIKey2>
UHFFFAOYSA

> <InChIKey1>
MVEFKSSMIMWNSQ

> <FragmenterScore>
0.0

> <NumberPeaksUsed>
22

$$$$

  CDK     0427161240

 13 13  0  0  0  0  0  0  0  0999 V2000
    0.0000    0.0000    0.0000 C   0  0  0  0  0  0  0  0  0  0  0  0
    0.0000    0.0000    0.0000 C   0  0  0  0  0  0  0  0  0  0  0  0
    0.0000    0.0000    0.0000 C   0  0  0  0  0  0  0  0  0  0  0  0
    0.0000    0.0000    0.0000 C   0  0  0  0  0  0  0  0  0  0  0  0
    0.0000    0.0000    0.0000 C   0  0  0  0  0  0  0  0  0  0  0  0
    0.0000    0.0000    0.0000 C   0  0  0  0  0  0  0  0  0  0  0  0
    0.0000    0.0000    0.0000 C   0  0  0  0  0  0  0  0  0  0  0  0
    0.0000    0.0000    0.0000 Br  0  0  0  0  0  0  0  0  0  0  0  0
    0.0000    0.0000    0.0000 F   0  0  0  0  0  0  0  0  0  0  0  0
    0.0000    0.0000    0.0000 F   0  0  0  0  0  0  0  0  0  0  0  0
    0.0000    0.0000    0.0000 F   0  0  0  0  0  0  0  0  0  0  0  0
    0.0000    0.0000    0.0000 N   0  0  0  0  0  0  0  0  0  0  0  0
    0.0000    0.0000    0.0000 N   0  0  0  0  0  0  0  0  0  0  0  0
  2  1  2  0  0  0  0 
  4  1  1  0  0  0  0 
  4  3  1  0  0  0  0 
  5  2  1  0  0  0  0 
  6  4  2  0  0  0  0 
  7  5  1  0  0  0  0 
  8  6  1  0  0  0  0 
  9  7  1  0  0  0  0 
 10  7  1  0  0  0  0 
 11  7  1  0  0  0  0 
 12  3  1  0  0  0  0 
 13  5  2  0  0  0  0 
 13  6  1  0  0  0  0 
M  END
> <NumberPeaksExplained>
0

> <PeaksExplained>
NA

> <FragmentMolecularFormulas>
NA

> <Score>
0.0

> <XlogP3>
1.7

> <InChI>
InChI=1S/C7H6BrF3N2/c8-6-4(3-12)1-2-5(13-6)7(9,10)11/h1-2H,3,12H2

> <FragmenterScore_Values>
NA

> <MaximumTreeDepth>
2

> <MonoisotopicMass>
253.966645

> <CompoundName>
[2-bromo-6-(trifluoromethyl)-3-pyridyl]methanamine

> <Identifier>
58873619

> <SimScore>
0.0

> <MolecularFormula>
C7H6BrF3N2

> <SMILES>
C1=CC(=NC(=C1CN)Br)C(F)(F)F

> <InChIKey2>
UHFFFAOYSA

> <InChIKey1>
JIDUNBFCXQLZBR

> <FragmenterScore>
0.0

> <NumberPeaksUsed>
22

$$$$

  CDK     0427161240

 13 13  0  0  0  0  0  0  0  0999 V2000
    0.0000    0.0000    0.0000 C   0  0  0  0  0  0  0  0  0  0  0  0
    0.0000    0.0000    0.0000 C   0  0  0  0  0  0  0  0  0  0  0  0
    0.0000    0.0000    0.0000 C   0  0  0  0  0  0  0  0  0  0  0  0
    0.0000    0.0000    0.0000 C   0  0  0  0  0  0  0  0  0  0  0  0
    0.0000    0.0000    0.0000 C   0  0  0  0  0  0  0  0  0  0  0  0
    0.0000    0.0000    0.0000 C   0  0  0  0  0  0  0  0  0  0  0  0
    0.0000    0.0000    0.0000 C   0  0  0  0  0  0  0  0  0  0  0  0
    0.0000    0.0000    0.0000 Br  0  0  0  0  0  0  0  0  0  0  0  0
    0.0000    0.0000    0.0000 F   0  0  0  0  0  0  0  0  0  0  0  0
    0.0000    0.0000    0.0000 F   0  0  0  0  0  0  0  0  0  0  0  0
    0.0000    0.0000    0.0000 F   0  0  0  0  0  0  0  0  0  0  0  0
    0.0000    0.0000    0.0000 N   0  0  0  0  0  0  0  0  0  0  0  0
    0.0000    0.0000    0.0000 N   0  0  0  0  0  0  0  0  0  0  0  0
  3  1  2  0  0  0  0 
  3  2  1  0  0  0  0 
  4  1  1  0  0  0  0 
  5  2  2  0  0  0  0 
  6  4  2  0  0  0  0 
  6  5  1  0  0  0  0 
  7  6  1  0  0  0  0 
  8  3  1  0  0  0  0 
  9  7  1  0  0  0  0 
 10  7  1  0  0  0  0 
 11  7  1  0  0  0  0 
 12  4  1  0  0  0  0 
 13  5  1  0  0  0  0 
M  END
> <NumberPeaksExplained>
0

> <PeaksExplained>
NA

> <FragmentMolecularFormulas>
NA

> <Score>
0.0

> <XlogP3>
2.1

> <InChI>
InChI=1S/C7H6BrF3N2/c8-3-1-4(12)6(5(13)2-3)7(9,10)11/h1-2H,12-13H2

> <FragmenterScore_Values>
NA

> <MaximumTreeDepth>
2

> <MonoisotopicMass>
253.966645

> <CompoundName>
5-bromo-2-(trifluoromethyl)benzene-1,3-diamine

> <Identifier>
57911085

> <SimScore>
0.0

> <MolecularFormula>
C7H6BrF3N2

> <SMILES>
C1=C(C=C(C(=C1N)C(F)(F)F)N)Br

> <InChIKey2>
UHFFFAOYSA

> <InChIKey1>
VJVANQFAFKJQNK

> <FragmenterScore>
0.0

> <NumberPeaksUsed>
22

$$$$

  CDK     0427161240

 14 14  0  0  0  0  0  0  0  0999 V2000
    0.0000    0.0000    0.0000 C   0  0  0  0  0  0  0  0  0  0  0  0
    0.0000    0.0000    0.0000 C   0  0  0  0  0  0  0  0  0  0  0  0
    0.0000    0.0000    0.0000 C   0  0  0  0  0  0  0  0  0  0  0  0
    0.0000    0.0000    0.0000 C   0  0  0  0  0  0  0  0  0  0  0  0
    0.0000    0.0000    0.0000 C   0  0  0  0  0  0  0  0  0  0  0  0
    0.0000    0.0000    0.0000 C   0  0  0  0  0  0  0  0  0  0  0  0
    0.0000    0.0000    0.0000 C   0  0  0  0  0  0  0  0  0  0  0  0
    0.0000    0.0000    0.0000 C   0  0  0  0  0  0  0  0  0  0  0  0
    0.0000    0.0000    0.0000 C   0  0  0  0  0  0  0  0  0  0  0  0
    0.0000    0.0000    0.0000 Cl  0  0  0  0  0  0  0  0  0  0  0  0
    0.0000    0.0000    0.0000 Cl  0  0  0  0  0  0  0  0  0  0  0  0
    0.0000    0.0000    0.0000 Cl  0  0  0  0  0  0  0  0  0  0  0  0
    0.0000    0.0000    0.0000 O   0  0  0  0  0  0  0  0  0  0  0  0
    0.0000    0.0000    0.0000 O   0  0  0  0  0  0  0  0  0  0  0  0
  4  2  1  0  0  0  0 
  5  3  2  0  0  0  0 
  7  2  2  0  0  0  0 
  7  3  1  0  0  0  0 
  7  6  1  0  0  0  0 
  8  4  2  0  0  0  0 
  8  5  1  0  0  0  0 
 10  9  1  0  0  0  0 
 11  9  1  0  0  0  0 
 12  9  1  0  0  0  0 
 13  1  1  0  0  0  0 
 13  8  1  0  0  0  0 
 14  6  1  0  0  0  0 
 14  9  1  0  0  0  0 
M  END
> <NumberPeaksExplained>
0

> <PeaksExplained>
NA

> <FragmentMolecularFormulas>
NA

> <Score>
0.0

> <XlogP3>
3.6

> <InChI>
InChI=1S/C9H9Cl3O2/c1-13-8-4-2-7(3-5-8)6-14-9(10,11)12/h2-5H,6H2,1H3

> <FragmenterScore_Values>
NA

> <MaximumTreeDepth>
2

> <MonoisotopicMass>
253.966813

> <CompoundName>
1-methoxy-4-(trichloromethoxymethyl)benzene

> <Identifier>
57261789

> <SimScore>
0.0

> <MolecularFormula>
C9H9Cl3O2

> <SMILES>
COC1=CC=C(C=C1)COC(Cl)(Cl)Cl

> <InChIKey2>
UHFFFAOYSA

> <InChIKey1>
DMDORHDNJYMING

> <FragmenterScore>
0.0

> <NumberPeaksUsed>
22

$$$$

  CDK     0427161240

 14 15  0  0  0  0  0  0  0  0999 V2000
    0.0000    0.0000    0.0000 C   0  0  0  0  0  0  0  0  0  0  0  0
    0.0000    0.0000    0.0000 C   0  0  0  0  0  0  0  0  0  0  0  0
    0.0000    0.0000    0.0000 C   0  0  0  0  0  0  0  0  0  0  0  0
    0.0000    0.0000    0.0000 C   0  0  0  0  0  0  0  0  0  0  0  0
    0.0000    0.0000    0.0000 C   0  0  0  0  0  0  0  0  0  0  0  0
    0.0000    0.0000    0.0000 Br  0  0  0  0  0  0  0  0  0  0  0  0
    0.0000    0.0000    0.0000 N   0  0  0  0  0  0  0  0  0  0  0  0
    0.0000    0.0000    0.0000 N   0  0  0  0  0  0  0  0  0  0  0  0
    0.0000    0.0000    0.0000 N   0  0  0  0  0  0  0  0  0  0  0  0
    0.0000    0.0000    0.0000 N   0  0  0  0  0  0  0  0  0  0  0  0
    0.0000    0.0000    0.0000 N   0  0  0  0  0  0  0  0  0  0  0  0
    0.0000    0.0000    0.0000 N   0  0  0  0  0  0  0  0  0  0  0  0
    0.0000    0.0000    0.0000 N   0  0  0  0  0  0  0  0  0  0  0  0
    0.0000    0.0000    0.0000 N   0  0  0  0  0  0  0  0  0  0  0  0
  3  2  1  0  0  0  0 
  4  2  1  0  0  0  0 
  6  5  1  0  0  0  0 
  7  3  2  0  0  0  0 
  9  1  2  0  0  0  0 
  9  3  1  0  0  0  0 
 10  1  1  0  0  0  0 
 10  4  2  0  0  0  0 
 11  2  2  0  0  0  0 
 11  5  1  0  0  0  0 
 12  4  1  0  0  0  0 
 12  5  1  0  0  0  0 
 13  5  1  0  0  0  0 
 14  8  2  0  0  0  0 
 14 13  2  0  0  0  0 
M  CHG  1   8  -1
M  CHG  1  14   1
M  END
> <NumberPeaksExplained>
0

> <PeaksExplained>
NA

> <FragmentMolecularFormulas>
NA

> <Score>
0.0

> <XlogP3>
0.7

> <InChI>
InChI=1S/C5H3BrN8/c6-5(13-14-8)11-2-3(7)9-1-10-4(2)12-5/h1H,(H2,7,9,10,12)

> <FragmenterScore_Values>
NA

> <MaximumTreeDepth>
2

> <MonoisotopicMass>
253.966404

> <CompoundName>
(6-amino-8-bromo-purin-8-yl)-diazonio-azanide

> <Identifier>
54231883

> <SimScore>
0.0

> <MolecularFormula>
C5H3BrN8

> <SMILES>
C1=NC2=NC(N=C2C(=N1)N)([N-][N+]#N)Br

> <InChIKey2>
UHFFFAOYSA

> <InChIKey1>
QJWCWFIIFSUHCP

> <FragmenterScore>
0.0

> <NumberPeaksUsed>
22

$$$$

  CDK     0427161240

 13 13  0  0  0  0  0  0  0  0999 V2000
    0.0000    0.0000    0.0000 C   0  0  0  0  0  0  0  0  0  0  0  0
    0.0000    0.0000    0.0000 C   0  0  0  0  0  0  0  0  0  0  0  0
    0.0000    0.0000    0.0000 C   0  0  0  0  0  0  0  0  0  0  0  0
    0.0000    0.0000    0.0000 C   0  0  0  0  0  0  0  0  0  0  0  0
    0.0000    0.0000    0.0000 C   0  0  0  0  0  0  0  0  0  0  0  0
    0.0000    0.0000    0.0000 C   0  0  0  0  0  0  0  0  0  0  0  0
    0.0000    0.0000    0.0000 C   0  0  0  0  0  0  0  0  0  0  0  0
    0.0000    0.0000    0.0000 Br  0  0  0  0  0  0  0  0  0  0  0  0
    0.0000    0.0000    0.0000 F   0  0  0  0  0  0  0  0  0  0  0  0
    0.0000    0.0000    0.0000 F   0  0  0  0  0  0  0  0  0  0  0  0
    0.0000    0.0000    0.0000 F   0  0  0  0  0  0  0  0  0  0  0  0
    0.0000    0.0000    0.0000 N   0  0  0  0  0  0  0  0  0  0  0  0
    0.0000    0.0000    0.0000 N   0  0  0  0  0  0  0  0  0  0  0  0
  2  1  2  0  0  0  0 
  4  1  1  0  0  0  0 
  4  3  2  0  0  0  0 
  5  3  1  0  0  0  0 
  6  2  1  0  0  0  0 
  6  5  2  0  0  0  0 
  7  4  1  0  0  0  0 
  8  5  1  0  0  0  0 
  9  7  1  0  0  0  0 
 10  7  1  0  0  0  0 
 11  7  1  0  0  0  0 
 13  6  1  0  0  0  0 
 13 12  1  0  0  0  0 
M  END
> <NumberPeaksExplained>
0

> <PeaksExplained>
NA

> <FragmentMolecularFormulas>
NA

> <Score>
0.0

> <XlogP3>
2.7

> <InChI>
InChI=1S/C7H6BrF3N2/c8-5-3-4(7(9,10)11)1-2-6(5)13-12/h1-3,13H,12H2

> <FragmenterScore_Values>
NA

> <MaximumTreeDepth>
2

> <MonoisotopicMass>
253.966645

> <CompoundName>
[2-bromo-4-(trifluoromethyl)phenyl]hydrazine

> <Identifier>
53909934

> <SimScore>
0.0

> <MolecularFormula>
C7H6BrF3N2

> <SMILES>
C1=CC(=C(C=C1C(F)(F)F)Br)NN

> <InChIKey2>
UHFFFAOYSA

> <InChIKey1>
IDBFIIZNCSOBER

> <FragmenterScore>
0.0

> <NumberPeaksUsed>
22

$$$$

  CDK     0427161240

 13 13  0  0  0  0  0  0  0  0999 V2000
    0.0000    0.0000    0.0000 C   0  0  0  0  0  0  0  0  0  0  0  0
    0.0000    0.0000    0.0000 C   0  0  0  0  0  0  0  0  0  0  0  0
    0.0000    0.0000    0.0000 C   0  0  0  0  0  0  0  0  0  0  0  0
    0.0000    0.0000    0.0000 C   0  0  0  0  0  0  0  0  0  0  0  0
    0.0000    0.0000    0.0000 C   0  0  0  0  0  0  0  0  0  0  0  0
    0.0000    0.0000    0.0000 C   0  0  0  0  0  0  0  0  0  0  0  0
    0.0000    0.0000    0.0000 C   0  0  0  0  0  0  0  0  0  0  0  0
    0.0000    0.0000    0.0000 Br  0  0  0  0  0  0  0  0  0  0  0  0
    0.0000    0.0000    0.0000 F   0  0  0  0  0  0  0  0  0  0  0  0
    0.0000    0.0000    0.0000 F   0  0  0  0  0  0  0  0  0  0  0  0
    0.0000    0.0000    0.0000 F   0  0  0  0  0  0  0  0  0  0  0  0
    0.0000    0.0000    0.0000 N   0  0  0  0  0  0  0  0  0  0  0  0
    0.0000    0.0000    0.0000 N   0  0  0  0  0  0  0  0  0  0  0  0
  2  1  2  0  0  0  0 
  4  1  1  0  0  0  0 
  4  3  2  0  0  0  0 
  5  3  1  0  0  0  0 
  6  2  1  0  0  0  0 
  6  5  2  0  0  0  0 
  7  5  1  0  0  0  0 
  8  6  1  0  0  0  0 
  9  7  1  0  0  0  0 
 10  7  1  0  0  0  0 
 11  7  1  0  0  0  0 
 13  4  1  0  0  0  0 
 13 12  1  0  0  0  0 
M  END
> <NumberPeaksExplained>
0

> <PeaksExplained>
NA

> <FragmentMolecularFormulas>
NA

> <Score>
0.0

> <XlogP3>
2.7

> <InChI>
InChI=1S/C7H6BrF3N2/c8-6-2-1-4(13-12)3-5(6)7(9,10)11/h1-3,13H,12H2

> <FragmenterScore_Values>
NA

> <MaximumTreeDepth>
2

> <MonoisotopicMass>
253.966645

> <CompoundName>
[4-bromo-3-(trifluoromethyl)phenyl]hydrazine

> <Identifier>
53426482

> <SimScore>
0.0

> <MolecularFormula>
C7H6BrF3N2

> <SMILES>
C1=CC(=C(C=C1NN)C(F)(F)F)Br

> <InChIKey2>
UHFFFAOYSA

> <InChIKey1>
YKXJXHVLEAPHFR

> <FragmenterScore>
0.0

> <NumberPeaksUsed>
22

$$$$

  CDK     0427161240

 13 13  0  0  0  0  0  0  0  0999 V2000
    0.0000    0.0000    0.0000 C   0  0  0  0  0  0  0  0  0  0  0  0
    0.0000    0.0000    0.0000 C   0  0  0  0  0  0  0  0  0  0  0  0
    0.0000    0.0000    0.0000 C   0  0  0  0  0  0  0  0  0  0  0  0
    0.0000    0.0000    0.0000 C   0  0  0  0  0  0  0  0  0  0  0  0
    0.0000    0.0000    0.0000 C   0  0  0  0  0  0  0  0  0  0  0  0
    0.0000    0.0000    0.0000 C   0  0  0  0  0  0  0  0  0  0  0  0
    0.0000    0.0000    0.0000 C   0  0  0  0  0  0  0  0  0  0  0  0
    0.0000    0.0000    0.0000 Br  0  0  0  0  0  0  0  0  0  0  0  0
    0.0000    0.0000    0.0000 F   0  0  0  0  0  0  0  0  0  0  0  0
    0.0000    0.0000    0.0000 F   0  0  0  0  0  0  0  0  0  0  0  0
    0.0000    0.0000    0.0000 F   0  0  0  0  0  0  0  0  0  0  0  0
    0.0000    0.0000    0.0000 N   0  0  0  0  0  0  0  0  0  0  0  0
    0.0000    0.0000    0.0000 N   0  0  0  0  0  0  0  0  0  0  0  0
  2  1  2  0  0  0  0 
  3  1  1  0  0  0  0 
  5  2  1  0  0  0  0 
  5  4  2  0  0  0  0 
  6  3  2  0  0  0  0 
  6  4  1  0  0  0  0 
  7  5  1  0  0  0  0 
  9  7  1  0  0  0  0 
 10  7  1  0  0  0  0 
 11  7  1  0  0  0  0 
 13  6  1  0  0  0  0 
 13  8  1  0  0  0  0 
 13 12  1  0  0  0  0 
M  END
> <NumberPeaksExplained>
0

> <PeaksExplained>
NA

> <FragmentMolecularFormulas>
NA

> <Score>
0.0

> <XlogP3>
3.5

> <InChI>
InChI=1S/C7H6BrF3N2/c8-13(12)6-3-1-2-5(4-6)7(9,10)11/h1-4H,12H2

> <FragmenterScore_Values>
NA

> <MaximumTreeDepth>
2

> <MonoisotopicMass>
253.966645

> <CompoundName>
1-bromo-1-[3-(trifluoromethyl)phenyl]hydrazine

> <Identifier>
53405646

> <SimScore>
0.0

> <MolecularFormula>
C7H6BrF3N2

> <SMILES>
C1=CC(=CC(=C1)N(N)Br)C(F)(F)F

> <InChIKey2>
UHFFFAOYSA

> <InChIKey1>
LERYFMLVOWEZQK

> <FragmenterScore>
0.0

> <NumberPeaksUsed>
22

$$$$

  CDK     0427161240

 13 13  0  0  0  0  0  0  0  0999 V2000
    0.0000    0.0000    0.0000 C   0  0  0  0  0  0  0  0  0  0  0  0
    0.0000    0.0000    0.0000 C   0  0  0  0  0  0  0  0  0  0  0  0
    0.0000    0.0000    0.0000 C   0  0  0  0  0  0  0  0  0  0  0  0
    0.0000    0.0000    0.0000 C   0  0  0  0  0  0  0  0  0  0  0  0
    0.0000    0.0000    0.0000 C   0  0  0  0  0  0  0  0  0  0  0  0
    0.0000    0.0000    0.0000 C   0  0  0  0  0  0  0  0  0  0  0  0
    0.0000    0.0000    0.0000 C   0  0  0  0  0  0  0  0  0  0  0  0
    0.0000    0.0000    0.0000 Br  0  0  0  0  0  0  0  0  0  0  0  0
    0.0000    0.0000    0.0000 F   0  0  0  0  0  0  0  0  0  0  0  0
    0.0000    0.0000    0.0000 F   0  0  0  0  0  0  0  0  0  0  0  0
    0.0000    0.0000    0.0000 F   0  0  0  0  0  0  0  0  0  0  0  0
    0.0000    0.0000    0.0000 N   0  0  0  0  0  0  0  0  0  0  0  0
    0.0000    0.0000    0.0000 N   0  0  0  0  0  0  0  0  0  0  0  0
  2  1  2  0  0  0  0 
  4  1  1  0  0  0  0 
  4  3  2  0  0  0  0 
  5  3  1  0  0  0  0 
  6  2  1  0  0  0  0 
  6  5  2  0  0  0  0 
  7  5  1  0  0  0  0 
  8  4  1  0  0  0  0 
  9  7  1  0  0  0  0 
 10  7  1  0  0  0  0 
 11  7  1  0  0  0  0 
 13  6  1  0  0  0  0 
 13 12  1  0  0  0  0 
M  END
> <NumberPeaksExplained>
0

> <PeaksExplained>
NA

> <FragmentMolecularFormulas>
NA

> <Score>
0.0

> <XlogP3>
2.7

> <InChI>
InChI=1S/C7H6BrF3N2/c8-4-1-2-6(13-12)5(3-4)7(9,10)11/h1-3,13H,12H2

> <FragmenterScore_Values>
NA

> <MaximumTreeDepth>
2

> <MonoisotopicMass>
253.966645

> <CompoundName>
[4-bromo-2-(trifluoromethyl)phenyl]hydrazine

> <Identifier>
50988740

> <SimScore>
0.0

> <MolecularFormula>
C7H6BrF3N2

> <SMILES>
C1=CC(=C(C=C1Br)C(F)(F)F)NN

> <InChIKey2>
UHFFFAOYSA

> <InChIKey1>
XGLDQVFQOXGKKS

> <FragmenterScore>
0.0

> <NumberPeaksUsed>
22

$$$$

  CDK     0427161240

 13 13  0  0  0  0  0  0  0  0999 V2000
    0.0000    0.0000    0.0000 C   0  0  0  0  0  0  0  0  0  0  0  0
    0.0000    0.0000    0.0000 C   0  0  0  0  0  0  0  0  0  0  0  0
    0.0000    0.0000    0.0000 C   0  0  0  0  0  0  0  0  0  0  0  0
    0.0000    0.0000    0.0000 C   0  0  0  0  0  0  0  0  0  0  0  0
    0.0000    0.0000    0.0000 C   0  0  0  0  0  0  0  0  0  0  0  0
    0.0000    0.0000    0.0000 C   0  0  0  0  0  0  0  0  0  0  0  0
    0.0000    0.0000    0.0000 C   0  0  0  0  0  0  0  0  0  0  0  0
    0.0000    0.0000    0.0000 Br  0  0  0  0  0  0  0  0  0  0  0  0
    0.0000    0.0000    0.0000 F   0  0  0  0  0  0  0  0  0  0  0  0
    0.0000    0.0000    0.0000 F   0  0  0  0  0  0  0  0  0  0  0  0
    0.0000    0.0000    0.0000 F   0  0  0  0  0  0  0  0  0  0  0  0
    0.0000    0.0000    0.0000 N   0  0  0  0  0  0  0  0  0  0  0  0
    0.0000    0.0000    0.0000 N   0  0  0  0  0  0  0  0  0  0  0  0
  2  1  2  0  0  0  0 
  5  1  1  0  0  0  0 
  5  3  2  0  0  0  0 
  6  2  1  0  0  0  0 
  7  4  1  0  0  0  0 
  8  5  1  0  0  0  0 
  9  7  1  0  0  0  0 
 10  7  1  0  0  0  0 
 11  7  1  0  0  0  0 
 12  3  1  0  0  0  0 
 12  6  2  0  0  0  0 
 13  4  1  0  0  0  0 
 13  6  1  0  0  0  0 
M  END
> <NumberPeaksExplained>
0

> <PeaksExplained>
NA

> <FragmentMolecularFormulas>
NA

> <Score>
0.0

> <XlogP3>
3.0

> <InChI>
InChI=1S/C7H6BrF3N2/c8-5-1-2-6(12-3-5)13-4-7(9,10)11/h1-3H,4H2,(H,12,13)

> <FragmenterScore_Values>
NA

> <MaximumTreeDepth>
2

> <MonoisotopicMass>
253.966645

> <CompoundName>
5-bromo-N-(2,2,2-trifluoroethyl)pyridin-2-amine

> <Identifier>
29280222

> <SimScore>
0.0

> <MolecularFormula>
C7H6BrF3N2

> <SMILES>
C1=CC(=NC=C1Br)NCC(F)(F)F

> <InChIKey2>
UHFFFAOYSA

> <InChIKey1>
UPYWFLKUATTYEA

> <FragmenterScore>
0.0

> <NumberPeaksUsed>
22

$$$$

  CDK     0427161240

 13 13  0  0  0  0  0  0  0  0999 V2000
    0.0000    0.0000    0.0000 C   0  0  0  0  0  0  0  0  0  0  0  0
    0.0000    0.0000    0.0000 C   0  0  0  0  0  0  0  0  0  0  0  0
    0.0000    0.0000    0.0000 C   0  0  0  0  0  0  0  0  0  0  0  0
    0.0000    0.0000    0.0000 C   0  0  0  0  0  0  0  0  0  0  0  0
    0.0000    0.0000    0.0000 C   0  0  0  0  0  0  0  0  0  0  0  0
    0.0000    0.0000    0.0000 C   0  0  0  0  0  0  0  0  0  0  0  0
    0.0000    0.0000    0.0000 C   0  0  0  0  0  0  0  0  0  0  0  0
    0.0000    0.0000    0.0000 Br  0  0  0  0  0  0  0  0  0  0  0  0
    0.0000    0.0000    0.0000 F   0  0  0  0  0  0  0  0  0  0  0  0
    0.0000    0.0000    0.0000 F   0  0  0  0  0  0  0  0  0  0  0  0
    0.0000    0.0000    0.0000 F   0  0  0  0  0  0  0  0  0  0  0  0
    0.0000    0.0000    0.0000 N   0  0  0  0  0  0  0  0  0  0  0  0
    0.0000    0.0000    0.0000 N   0  0  0  0  0  0  0  0  0  0  0  0
  3  1  2  0  0  0  0 
  3  2  1  0  0  0  0 
  4  1  1  0  0  0  0 
  5  2  2  0  0  0  0 
  6  4  2  0  0  0  0 
  6  5  1  0  0  0  0 
  7  4  1  0  0  0  0 
  8  6  1  0  0  0  0 
  9  7  1  0  0  0  0 
 10  7  1  0  0  0  0 
 11  7  1  0  0  0  0 
 12  3  1  0  0  0  0 
 13  5  1  0  0  0  0 
M  END
> <NumberPeaksExplained>
0

> <PeaksExplained>
NA

> <FragmentMolecularFormulas>
NA

> <Score>
0.0

> <XlogP3>
2.1

> <InChI>
InChI=1S/C7H6BrF3N2/c8-6-4(7(9,10)11)1-3(12)2-5(6)13/h1-2H,12-13H2

> <FragmenterScore_Values>
NA

> <MaximumTreeDepth>
2

> <MonoisotopicMass>
253.966645

> <CompoundName>
4-bromo-5-(trifluoromethyl)benzene-1,3-diamine

> <Identifier>
23135586

> <SimScore>
0.0

> <MolecularFormula>
C7H6BrF3N2

> <SMILES>
C1=C(C=C(C(=C1N)Br)C(F)(F)F)N

> <InChIKey2>
UHFFFAOYSA

> <InChIKey1>
HOUIJWVBZMYOGN

> <FragmenterScore>
0.0

> <NumberPeaksUsed>
22

$$$$

  CDK     0427161240

 13 13  0  0  0  0  0  0  0  0999 V2000
    0.0000    0.0000    0.0000 C   0  0  0  0  0  0  0  0  0  0  0  0
    0.0000    0.0000    0.0000 C   0  0  0  0  0  0  0  0  0  0  0  0
    0.0000    0.0000    0.0000 C   0  0  0  0  0  0  0  0  0  0  0  0
    0.0000    0.0000    0.0000 C   0  0  0  0  0  0  0  0  0  0  0  0
    0.0000    0.0000    0.0000 C   0  0  0  0  0  0  0  0  0  0  0  0
    0.0000    0.0000    0.0000 C   0  0  0  0  0  0  0  0  0  0  0  0
    0.0000    0.0000    0.0000 C   0  0  0  0  0  0  0  0  0  0  0  0
    0.0000    0.0000    0.0000 Br  0  0  0  0  0  0  0  0  0  0  0  0
    0.0000    0.0000    0.0000 F   0  0  0  0  0  0  0  0  0  0  0  0
    0.0000    0.0000    0.0000 F   0  0  0  0  0  0  0  0  0  0  0  0
    0.0000    0.0000    0.0000 F   0  0  0  0  0  0  0  0  0  0  0  0
    0.0000    0.0000    0.0000 N   0  0  0  0  0  0  0  0  0  0  0  0
    0.0000    0.0000    0.0000 N   0  0  0  0  0  0  0  0  0  0  0  0
  3  1  1  0  0  0  0 
  4  2  2  0  0  0  0 
  5  1  2  0  0  0  0 
  5  2  1  0  0  0  0 
  6  3  2  0  0  0  0 
  6  4  1  0  0  0  0 
  7  5  1  0  0  0  0 
  9  7  1  0  0  0  0 
 10  7  1  0  0  0  0 
 11  7  1  0  0  0  0 
 12  6  1  0  0  0  0 
 13  8  1  0  0  0  0 
 13 12  1  0  0  0  0 
M  END
> <NumberPeaksExplained>
0

> <PeaksExplained>
NA

> <FragmentMolecularFormulas>
NA

> <Score>
0.0

> <XlogP3>
3.0

> <InChI>
InChI=1S/C7H6BrF3N2/c8-13-12-6-3-1-5(2-4-6)7(9,10)11/h1-4,12-13H

> <FragmenterScore_Values>
NA

> <MaximumTreeDepth>
2

> <MonoisotopicMass>
253.966645

> <CompoundName>
1-bromo-2-[4-(trifluoromethyl)phenyl]hydrazine

> <Identifier>
20429810

> <SimScore>
0.0

> <MolecularFormula>
C7H6BrF3N2

> <SMILES>
C1=CC(=CC=C1C(F)(F)F)NNBr

> <InChIKey2>
UHFFFAOYSA

> <InChIKey1>
UDXKCXSYAQXYMR

> <FragmenterScore>
0.0

> <NumberPeaksUsed>
22

$$$$

  CDK     0427161240

 14 14  0  0  0  0  0  0  0  0999 V2000
    0.0000    0.0000    0.0000 C   0  0  0  0  0  0  0  0  0  0  0  0
    0.0000    0.0000    0.0000 C   0  0  0  0  0  0  0  0  0  0  0  0
    0.0000    0.0000    0.0000 C   0  0  0  0  0  0  0  0  0  0  0  0
    0.0000    0.0000    0.0000 C   0  0  0  0  0  0  0  0  0  0  0  0
    0.0000    0.0000    0.0000 C   0  0  0  0  0  0  0  0  0  0  0  0
    0.0000    0.0000    0.0000 C   0  0  0  0  0  0  0  0  0  0  0  0
    0.0000    0.0000    0.0000 C   0  0  0  0  0  0  0  0  0  0  0  0
    0.0000    0.0000    0.0000 C   0  0  0  0  0  0  0  0  0  0  0  0
    0.0000    0.0000    0.0000 C   0  0  0  0  0  0  0  0  0  0  0  0
    0.0000    0.0000    0.0000 Cl  0  0  0  0  0  0  0  0  0  0  0  0
    0.0000    0.0000    0.0000 Cl  0  0  0  0  0  0  0  0  0  0  0  0
    0.0000    0.0000    0.0000 Cl  0  0  0  0  0  0  0  0  0  0  0  0
    0.0000    0.0000    0.0000 O   0  0  0  0  0  0  0  0  0  0  0  0
    0.0000    0.0000    0.0000 O   0  0  0  0  0  0  0  0  0  0  0  0
  3  1  1  0  0  0  0 
  4  2  2  0  0  0  0 
  6  5  1  0  0  0  0 
  7  1  2  0  0  0  0 
  7  2  1  0  0  0  0 
  8  3  2  0  0  0  0 
  8  4  1  0  0  0  0 
 10  7  1  0  0  0  0 
 11  9  1  0  0  0  0 
 12  9  1  0  0  0  0 
 13  5  1  0  0  0  0 
 13  8  1  0  0  0  0 
 14  6  1  0  0  0  0 
 14  9  1  0  0  0  0 
M  END
> <NumberPeaksExplained>
0

> <PeaksExplained>
NA

> <FragmentMolecularFormulas>
NA

> <Score>
0.0

> <XlogP3>
3.8

> <InChI>
InChI=1S/C9H9Cl3O2/c10-7-1-3-8(4-2-7)13-5-6-14-9(11)12/h1-4,9H,5-6H2

> <FragmenterScore_Values>
NA

> <MaximumTreeDepth>
2

> <MonoisotopicMass>
253.966813

> <CompoundName>
1-chloro-4-[2-(dichloromethoxy)ethoxy]benzene

> <Identifier>
20147892

> <SimScore>
0.0

> <MolecularFormula>
C9H9Cl3O2

> <SMILES>
C1=CC(=CC=C1OCCOC(Cl)Cl)Cl

> <InChIKey2>
UHFFFAOYSA

> <InChIKey1>
YFEAVHNYLSFUEK

> <FragmenterScore>
0.0

> <NumberPeaksUsed>
22

$$$$

  CDK     0427161240

 13 13  0  0  0  0  0  0  0  0999 V2000
    0.0000    0.0000    0.0000 C   0  0  0  0  0  0  0  0  0  0  0  0
    0.0000    0.0000    0.0000 C   0  0  0  0  0  0  0  0  0  0  0  0
    0.0000    0.0000    0.0000 C   0  0  0  0  0  0  0  0  0  0  0  0
    0.0000    0.0000    0.0000 C   0  0  0  0  0  0  0  0  0  0  0  0
    0.0000    0.0000    0.0000 C   0  0  0  0  0  0  0  0  0  0  0  0
    0.0000    0.0000    0.0000 C   0  0  0  0  0  0  0  0  0  0  0  0
    0.0000    0.0000    0.0000 C   0  0  0  0  0  0  0  0  0  0  0  0
    0.0000    0.0000    0.0000 Br  0  0  0  0  0  0  0  0  0  0  0  0
    0.0000    0.0000    0.0000 F   0  0  0  0  0  0  0  0  0  0  0  0
    0.0000    0.0000    0.0000 F   0  0  0  0  0  0  0  0  0  0  0  0
    0.0000    0.0000    0.0000 F   0  0  0  0  0  0  0  0  0  0  0  0
    0.0000    0.0000    0.0000 N   0  0  0  0  0  0  0  0  0  0  0  0
    0.0000    0.0000    0.0000 N   0  0  0  0  0  0  0  0  0  0  0  0
  3  2  2  0  0  0  0 
  5  2  1  0  0  0  0 
  5  4  2  0  0  0  0 
  6  3  1  0  0  0  0 
  8  5  1  0  0  0  0 
  9  7  1  0  0  0  0 
 10  7  1  0  0  0  0 
 11  7  1  0  0  0  0 
 12  4  1  0  0  0  0 
 12  6  2  0  0  0  0 
 13  1  1  0  0  0  0 
 13  6  1  0  0  0  0 
 13  7  1  0  0  0  0 
M  END
> <NumberPeaksExplained>
0

> <PeaksExplained>
NA

> <FragmentMolecularFormulas>
NA

> <Score>
0.0

> <XlogP3>
3.2

> <InChI>
InChI=1S/C7H6BrF3N2/c1-13(7(9,10)11)6-3-2-5(8)4-12-6/h2-4H,1H3

> <FragmenterScore_Values>
NA

> <MaximumTreeDepth>
2

> <MonoisotopicMass>
253.966645

> <CompoundName>
5-bromo-N-methyl-N-(trifluoromethyl)pyridin-2-amine

> <Identifier>
14942323

> <SimScore>
0.0

> <MolecularFormula>
C7H6BrF3N2

> <SMILES>
CN(C1=NC=C(C=C1)Br)C(F)(F)F

> <InChIKey2>
UHFFFAOYSA

> <InChIKey1>
AEHTYGSIYKGVMV

> <FragmenterScore>
0.0

> <NumberPeaksUsed>
22

$$$$

  CDK     0427161240

 13 14  0  0  0  0  0  0  0  0999 V2000
    0.0000    0.0000    0.0000 C   0  0  0  0  0  0  0  0  0  0  0  0
    0.0000    0.0000    0.0000 C   0  0  0  0  0  0  0  0  0  0  0  0
    0.0000    0.0000    0.0000 C   0  0  0  0  0  0  0  0  0  0  0  0
    0.0000    0.0000    0.0000 C   0  0  0  0  0  0  0  0  0  0  0  0
    0.0000    0.0000    0.0000 C   0  0  0  0  0  0  0  0  0  0  0  0
    0.0000    0.0000    0.0000 C   0  0  0  0  0  0  0  0  0  0  0  0
    0.0000    0.0000    0.0000 C   0  0  0  0  0  0  0  0  0  0  0  0
    0.0000    0.0000    0.0000 C   0  0  0  0  0  0  0  0  0  0  0  0
    0.0000    0.0000    0.0000 C   0  0  0  0  0  0  0  0  0  0  0  0
    0.0000    0.0000    0.0000 C   0  0  0  0  0  0  0  0  0  0  0  0
    0.0000    0.0000    0.0000 C   0  0  0  0  0  0  0  0  0  0  0  0
    0.0000    0.0000    0.0000 S   0  0  0  0  0  0  0  0  0  0  0  0
    0.0000    0.0000    0.0000 Se  0  0  0  0  0  0  0  0  0  0  0  0
  2  1  2  0  0  0  0 
  3  1  1  0  0  0  0 
  5  4  1  0  0  0  0 
  6  2  1  0  0  0  0 
  7  3  2  0  0  0  0 
  8  4  2  0  0  0  0 
 10  5  2  0  0  0  0 
 10  9  1  0  0  0  0 
 11  6  2  0  0  0  0 
 11  7  1  0  0  0  0 
 12  8  1  0  0  0  0 
 12 10  1  0  0  0  0 
 13  9  1  0  0  0  0 
 13 11  1  0  0  0  0 
M  END
> <NumberPeaksExplained>
0

> <PeaksExplained>
NA

> <FragmentMolecularFormulas>
NA

> <Score>
0.0

> <XlogP3>
NA

> <InChI>
InChI=1S/C11H10SSe/c1-2-6-11(7-3-1)13-9-10-5-4-8-12-10/h1-8H,9H2

> <FragmenterScore_Values>
NA

> <MaximumTreeDepth>
2

> <MonoisotopicMass>
253.966843

> <CompoundName>
2-(phenylselanylmethyl)thiophene

> <Identifier>
12681934

> <SimScore>
0.0

> <MolecularFormula>
C11H10SSe

> <SMILES>
C1=CC=C(C=C1)[Se]CC2=CC=CS2

> <InChIKey2>
UHFFFAOYSA

> <InChIKey1>
FOADWPXRINWAGN

> <FragmenterScore>
0.0

> <NumberPeaksUsed>
22

$$$$

  CDK     0427161240

 13 14  0  0  0  0  0  0  0  0999 V2000
    0.0000    0.0000    0.0000 C   0  0  0  0  0  0  0  0  0  0  0  0
    0.0000    0.0000    0.0000 C   0  0  0  0  0  0  0  0  0  0  0  0
    0.0000    0.0000    0.0000 C   0  0  0  0  0  0  0  0  0  0  0  0
    0.0000    0.0000    0.0000 C   0  0  0  0  0  0  0  0  0  0  0  0
    0.0000    0.0000    0.0000 C   0  0  0  0  0  0  0  0  0  0  0  0
    0.0000    0.0000    0.0000 C   0  0  0  0  0  0  0  0  0  0  0  0
    0.0000    0.0000    0.0000 C   0  0  0  0  0  0  0  0  0  0  0  0
    0.0000    0.0000    0.0000 C   0  0  0  0  0  0  0  0  0  0  0  0
    0.0000    0.0000    0.0000 C   0  0  0  0  0  0  0  0  0  0  0  0
    0.0000    0.0000    0.0000 C   0  0  0  0  0  0  0  0  0  0  0  0
    0.0000    0.0000    0.0000 C   0  0  0  0  0  0  0  0  0  0  0  0
    0.0000    0.0000    0.0000 S   0  0  0  0  0  0  0  0  0  0  0  0
    0.0000    0.0000    0.0000 Se  0  0  0  0  0  0  0  0  0  0  0  0
  3  2  2  0  0  0  0 
  4  2  1  0  0  0  0 
  5  3  1  0  0  0  0 
  6  4  2  0  0  0  0 
  8  7  2  0  0  0  0 
  9  1  1  0  0  0  0 
  9  7  1  0  0  0  0 
 10  5  2  0  0  0  0 
 10  6  1  0  0  0  0 
 11  9  2  0  0  0  0 
 12  8  1  0  0  0  0 
 12 11  1  0  0  0  0 
 13 10  1  0  0  0  0 
 13 11  1  0  0  0  0 
M  END
> <NumberPeaksExplained>
0

> <PeaksExplained>
NA

> <FragmentMolecularFormulas>
NA

> <Score>
0.0

> <XlogP3>
NA

> <InChI>
InChI=1S/C11H10SSe/c1-9-7-8-12-11(9)13-10-5-3-2-4-6-10/h2-8H,1H3

> <FragmenterScore_Values>
NA

> <MaximumTreeDepth>
2

> <MonoisotopicMass>
253.966843

> <CompoundName>
3-methyl-2-phenylselanyl-thiophene

> <Identifier>
10999563

> <SimScore>
0.0

> <MolecularFormula>
C11H10SSe

> <SMILES>
CC1=C(SC=C1)[Se]C2=CC=CC=C2

> <InChIKey2>
UHFFFAOYSA

> <InChIKey1>
JPUIPIOURDWRFR

> <FragmenterScore>
0.0

> <NumberPeaksUsed>
22

$$$$

  CDK     0427161240

 13 13  0  0  0  0  0  0  0  0999 V2000
    0.0000    0.0000    0.0000 C   0  0  0  0  0  0  0  0  0  0  0  0
    0.0000    0.0000    0.0000 C   0  0  0  0  0  0  0  0  0  0  0  0
    0.0000    0.0000    0.0000 C   0  0  0  0  0  0  0  0  0  0  0  0
    0.0000    0.0000    0.0000 C   0  0  0  0  0  0  0  0  0  0  0  0
    0.0000    0.0000    0.0000 C   0  0  0  0  0  0  0  0  0  0  0  0
    0.0000    0.0000    0.0000 C   0  0  0  0  0  0  0  0  0  0  0  0
    0.0000    0.0000    0.0000 C   0  0  0  0  0  0  0  0  0  0  0  0
    0.0000    0.0000    0.0000 Br  0  0  0  0  0  0  0  0  0  0  0  0
    0.0000    0.0000    0.0000 F   0  0  0  0  0  0  0  0  0  0  0  0
    0.0000    0.0000    0.0000 F   0  0  0  0  0  0  0  0  0  0  0  0
    0.0000    0.0000    0.0000 F   0  0  0  0  0  0  0  0  0  0  0  0
    0.0000    0.0000    0.0000 N   0  0  0  0  0  0  0  0  0  0  0  0
    0.0000    0.0000    0.0000 N   0  0  0  0  0  0  0  0  0  0  0  0
  3  1  2  0  0  0  0 
  4  2  2  0  0  0  0 
  4  3  1  0  0  0  0 
  5  1  1  0  0  0  0 
  6  2  1  0  0  0  0 
  6  5  2  0  0  0  0 
  7  3  1  0  0  0  0 
  8  4  1  0  0  0  0 
  9  7  1  0  0  0  0 
 10  7  1  0  0  0  0 
 11  7  1  0  0  0  0 
 12  5  1  0  0  0  0 
 13  6  1  0  0  0  0 
M  END
> <NumberPeaksExplained>
0

> <PeaksExplained>
NA

> <FragmentMolecularFormulas>
NA

> <Score>
0.0

> <XlogP3>
2.1

> <InChI>
InChI=1S/C7H6BrF3N2/c8-4-2-6(13)5(12)1-3(4)7(9,10)11/h1-2H,12-13H2

> <FragmenterScore_Values>
NA

> <MaximumTreeDepth>
2

> <MonoisotopicMass>
253.966645

> <CompoundName>
4-bromo-5-(trifluoromethyl)benzene-1,2-diamine

> <Identifier>
10538921

> <SimScore>
0.0

> <MolecularFormula>
C7H6BrF3N2

> <SMILES>
C1=C(C(=CC(=C1N)N)Br)C(F)(F)F

> <InChIKey2>
UHFFFAOYSA

> <InChIKey1>
AKIMDXKCJKECRS

> <FragmenterScore>
0.0

> <NumberPeaksUsed>
22

$$$$

  CDK     0427161240

 13 13  0  0  0  0  0  0  0  0999 V2000
    0.0000    0.0000    0.0000 C   0  0  0  0  0  0  0  0  0  0  0  0
    0.0000    0.0000    0.0000 C   0  0  0  0  0  0  0  0  0  0  0  0
    0.0000    0.0000    0.0000 C   0  0  0  0  0  0  0  0  0  0  0  0
    0.0000    0.0000    0.0000 C   0  0  0  0  0  0  0  0  0  0  0  0
    0.0000    0.0000    0.0000 C   0  0  0  0  0  0  0  0  0  0  0  0
    0.0000    0.0000    0.0000 C   0  0  0  0  0  0  0  0  0  0  0  0
    0.0000    0.0000    0.0000 C   0  0  0  0  0  0  0  0  0  0  0  0
    0.0000    0.0000    0.0000 Br  0  0  0  0  0  0  0  0  0  0  0  0
    0.0000    0.0000    0.0000 F   0  0  0  0  0  0  0  0  0  0  0  0
    0.0000    0.0000    0.0000 F   0  0  0  0  0  0  0  0  0  0  0  0
    0.0000    0.0000    0.0000 F   0  0  0  0  0  0  0  0  0  0  0  0
    0.0000    0.0000    0.0000 N   0  0  0  0  0  0  0  0  0  0  0  0
    0.0000    0.0000    0.0000 N   0  0  0  0  0  0  0  0  0  0  0  0
  3  1  2  0  0  0  0 
  3  2  1  0  0  0  0 
  4  1  1  0  0  0  0 
  5  2  2  0  0  0  0 
  6  4  2  0  0  0  0 
  6  5  1  0  0  0  0 
  7  4  1  0  0  0  0 
  8  3  1  0  0  0  0 
  9  7  1  0  0  0  0 
 10  7  1  0  0  0  0 
 11  7  1  0  0  0  0 
 12  5  1  0  0  0  0 
 13  6  1  0  0  0  0 
M  END
> <NumberPeaksExplained>
0

> <PeaksExplained>
NA

> <FragmentMolecularFormulas>
NA

> <Score>
0.0

> <XlogP3>
2.1

> <InChI>
InChI=1S/C7H6BrF3N2/c8-3-1-4(7(9,10)11)6(13)5(12)2-3/h1-2H,12-13H2

> <FragmenterScore_Values>
NA

> <MaximumTreeDepth>
2

> <MonoisotopicMass>
253.966645

> <CompoundName>
5-bromo-3-(trifluoromethyl)benzene-1,2-diamine

> <Identifier>
10515152

> <SimScore>
0.0

> <MolecularFormula>
C7H6BrF3N2

> <SMILES>
C1=C(C=C(C(=C1N)N)C(F)(F)F)Br

> <InChIKey2>
UHFFFAOYSA

> <InChIKey1>
PVHRHJXBSIOEGL

> <FragmenterScore>
0.0

> <NumberPeaksUsed>
22

$$$$

  CDK     0427161240

 13 13  0  0  0  0  0  0  0  0999 V2000
    0.0000    0.0000    0.0000 C   0  0  0  0  0  0  0  0  0  0  0  0
    0.0000    0.0000    0.0000 C   0  0  0  0  0  0  0  0  0  0  0  0
    0.0000    0.0000    0.0000 C   0  0  0  0  0  0  0  0  0  0  0  0
    0.0000    0.0000    0.0000 C   0  0  0  0  0  0  0  0  0  0  0  0
    0.0000    0.0000    0.0000 C   0  0  0  0  0  0  0  0  0  0  0  0
    0.0000    0.0000    0.0000 C   0  0  0  0  0  0  0  0  0  0  0  0
    0.0000    0.0000    0.0000 C   0  0  0  0  0  0  0  0  0  0  0  0
    0.0000    0.0000    0.0000 Br  0  0  0  0  0  0  0  0  0  0  0  0
    0.0000    0.0000    0.0000 F   0  0  0  0  0  0  0  0  0  0  0  0
    0.0000    0.0000    0.0000 F   0  0  0  0  0  0  0  0  0  0  0  0
    0.0000    0.0000    0.0000 F   0  0  0  0  0  0  0  0  0  0  0  0
    0.0000    0.0000    0.0000 N   0  0  0  0  0  0  0  0  0  0  0  0
    0.0000    0.0000    0.0000 N   0  0  0  0  0  0  0  0  0  0  0  0
  2  1  2  0  0  0  0 
  4  1  1  0  0  0  0 
  4  3  2  0  0  0  0 
  5  2  1  0  0  0  0 
  6  3  1  0  0  0  0 
  6  5  2  0  0  0  0 
  7  4  1  0  0  0  0 
  8  5  1  0  0  0  0 
  9  7  1  0  0  0  0 
 10  7  1  0  0  0  0 
 11  7  1  0  0  0  0 
 13  6  1  0  0  0  0 
 13 12  1  0  0  0  0 
M  END
> <NumberPeaksExplained>
0

> <PeaksExplained>
NA

> <FragmentMolecularFormulas>
NA

> <Score>
0.0

> <XlogP3>
2.7

> <InChI>
InChI=1S/C7H6BrF3N2/c8-5-2-1-4(7(9,10)11)3-6(5)13-12/h1-3,13H,12H2

> <FragmenterScore_Values>
NA

> <MaximumTreeDepth>
2

> <MonoisotopicMass>
253.966645

> <CompoundName>
[2-bromo-5-(trifluoromethyl)phenyl]hydrazine

> <Identifier>
2773419

> <SimScore>
0.0

> <MolecularFormula>
C7H6BrF3N2

> <SMILES>
C1=CC(=C(C=C1C(F)(F)F)NN)Br

> <InChIKey2>
UHFFFAOYSA

> <InChIKey1>
XHZHKTZGRNFEOO

> <FragmenterScore>
0.0

> <NumberPeaksUsed>
22

$$$$

  CDK     0427161240

 13 13  0  0  0  0  0  0  0  0999 V2000
    0.0000    0.0000    0.0000 C   0  0  0  0  0  0  0  0  0  0  0  0
    0.0000    0.0000    0.0000 C   0  0  0  0  0  0  0  0  0  0  0  0
    0.0000    0.0000    0.0000 C   0  0  0  0  0  0  0  0  0  0  0  0
    0.0000    0.0000    0.0000 C   0  0  0  0  0  0  0  0  0  0  0  0
    0.0000    0.0000    0.0000 C   0  0  0  0  0  0  0  0  0  0  0  0
    0.0000    0.0000    0.0000 C   0  0  0  0  0  0  0  0  0  0  0  0
    0.0000    0.0000    0.0000 C   0  0  0  0  0  0  0  0  0  0  0  0
    0.0000    0.0000    0.0000 Br  0  0  0  0  0  0  0  0  0  0  0  0
    0.0000    0.0000    0.0000 F   0  0  0  0  0  0  0  0  0  0  0  0
    0.0000    0.0000    0.0000 F   0  0  0  0  0  0  0  0  0  0  0  0
    0.0000    0.0000    0.0000 F   0  0  0  0  0  0  0  0  0  0  0  0
    0.0000    0.0000    0.0000 N   0  0  0  0  0  0  0  0  0  0  0  0
    0.0000    0.0000    0.0000 N   0  0  0  0  0  0  0  0  0  0  0  0
  3  1  2  0  0  0  0 
  3  2  1  0  0  0  0 
  4  1  1  0  0  0  0 
  5  2  2  0  0  0  0 
  6  4  2  0  0  0  0 
  6  5  1  0  0  0  0 
  7  3  1  0  0  0  0 
  8  4  1  0  0  0  0 
  9  7  1  0  0  0  0 
 10  7  1  0  0  0  0 
 11  7  1  0  0  0  0 
 12  5  1  0  0  0  0 
 13  6  1  0  0  0  0 
M  END
> <NumberPeaksExplained>
0

> <PeaksExplained>
NA

> <FragmentMolecularFormulas>
NA

> <Score>
0.0

> <XlogP3>
2.1

> <InChI>
InChI=1S/C7H6BrF3N2/c8-4-1-3(7(9,10)11)2-5(12)6(4)13/h1-2H,12-13H2

> <FragmenterScore_Values>
NA

> <MaximumTreeDepth>
2

> <MonoisotopicMass>
253.966645

> <CompoundName>
3-bromo-5-(trifluoromethyl)benzene-1,2-diamine

> <Identifier>
735785

> <SimScore>
0.0

> <MolecularFormula>
C7H6BrF3N2

> <SMILES>
C1=C(C=C(C(=C1N)N)Br)C(F)(F)F

> <InChIKey2>
UHFFFAOYSA

> <InChIKey1>
OVGAPUVMLZWQQF

> <FragmenterScore>
0.0

> <NumberPeaksUsed>
22

$$$$
